                                  MODFLOW-2005     
      U.S. GEOLOGICAL SURVEY MODULAR FINITE-DIFFERENCE GROUND-WATER FLOW MODEL
                            VERSION 1.12.00 2/3/2017

 LIST FILE: sim_flow.list
                         UNIT    2

 OPENING sim_flow.dis
 FILE TYPE:DIS   UNIT   11   STATUS:OLD    
 FORMAT:FORMATTED              ACCESS:SEQUENTIAL          

 OPENING sim_flow.bas
 FILE TYPE:BAS6   UNIT   13   STATUS:OLD    
 FORMAT:FORMATTED              ACCESS:SEQUENTIAL          

 OPENING sim_flow.wel
 FILE TYPE:WEL   UNIT   20   STATUS:OLD    
 FORMAT:FORMATTED              ACCESS:SEQUENTIAL          

 OPENING sim_flow.oc
 FILE TYPE:OC   UNIT   14   STATUS:OLD    
 FORMAT:FORMATTED              ACCESS:SEQUENTIAL          

 OPENING sim_flow.pcg
 FILE TYPE:PCG   UNIT   27   STATUS:OLD    
 FORMAT:FORMATTED              ACCESS:SEQUENTIAL          

 OPENING sim_flow.lpf
 FILE TYPE:LPF   UNIT   15   STATUS:OLD    
 FORMAT:FORMATTED              ACCESS:SEQUENTIAL          

 OPENING sim_flow.hds
 FILE TYPE:DATA(BINARY)   UNIT   51   STATUS:REPLACE
 FORMAT:UNFORMATTED            ACCESS:STREAM              

 OPENING sim_flow.cbc
 FILE TYPE:DATA(BINARY)   UNIT   53   STATUS:REPLACE
 FORMAT:UNFORMATTED            ACCESS:STREAM              

 BAS -- BASIC PACKAGE, VERSION 7, 5/2/2005 INPUT READ FROM UNIT   13

 MODFLOW was compiled using mixed precision
 Precision of REAL variables:           6
 Precision of DOUBLE PRECISION variables:          15

 DISCRETIZATION INPUT DATA READ FROM UNIT   11
 # DIS package for  MODFLOW-2005, generated by Flopy.
    1 LAYERS       100 ROWS       100 COLUMNS
    1 STRESS PERIOD(S) IN SIMULATION
 MODEL TIME UNIT IS DAYS
 MODEL LENGTH UNIT IS METERS
  Confining bed flag for each layer:
   0

                     DELR =   1.00000    

                     DELC =   1.00000    

 TOP ELEVATION OF LAYER 1 =   0.00000    

   MODEL LAYER BOTTOM EL. =  -50.0000     FOR LAYER   1


 STRESS PERIOD     LENGTH       TIME STEPS     MULTIPLIER FOR DELT    SS FLAG
 ----------------------------------------------------------------------------
        1         1.000000          1                    1.000         SS

 STEADY-STATE SIMULATION




 # BAS6 package for  MODFLOW-2005, generated by Flopy.                           
 THE FREE FORMAT OPTION HAS BEEN SELECTED



                     BOUNDARY ARRAY FOR LAYER   1
 READING ON UNIT   13 WITH FORMAT: (100I10)            

 AQUIFER HEAD WILL BE SET TO  -999.99     AT ALL NO-FLOW NODES (IBOUND=0).



                       INITIAL HEAD FOR LAYER   1
 READING ON UNIT   13 WITH FORMAT: (100E15.6)          
 # OC package for  MODFLOW-2005, generated by Flopy.

 OUTPUT CONTROL IS SPECIFIED ONLY AT TIME STEPS FOR WHICH OUTPUT IS DESIRED
 COMPACT CELL-BY-CELL BUDGET FILES WILL BE WRITTEN
 AUXILIARY DATA WILL BE SAVED IN CELL-BY-CELL BUDGET FILES
 HEAD PRINT FORMAT CODE IS   0    DRAWDOWN PRINT FORMAT CODE IS   0
 HEADS WILL BE SAVED ON UNIT   51    DRAWDOWNS WILL BE SAVED ON UNIT    0

 LPF -- LAYER-PROPERTY FLOW PACKAGE, VERSION 7, 5/2/2005
         INPUT READ FROM UNIT   15
 # LPF package for  MODFLOW-2005, generated by Flopy.
 CELL-BY-CELL FLOWS WILL BE SAVED ON UNIT   53
 HEAD AT CELLS THAT CONVERT TO DRY= -1.00000E+30
 No named parameters

   LAYER FLAGS:
 LAYER       LAYTYP        LAYAVG         CHANI        LAYVKA        LAYWET
 ---------------------------------------------------------------------------
    1             0             0     1.000E+00             0             0

   INTERPRETATION OF LAYER FLAGS:
                        INTERBLOCK     HORIZONTAL    DATA IN
         LAYER TYPE   TRANSMISSIVITY   ANISOTROPY   ARRAY VKA   WETTABILITY
 LAYER      (LAYTYP)      (LAYAVG)       (CHANI)      (LAYVKA)      (LAYWET)
 ---------------------------------------------------------------------------
    1      CONFINED      HARMONIC     1.000E+00    VERTICAL K  NON-WETTABLE

 WETTING CAPABILITY IS NOT ACTIVE IN ANY LAYER



              HYD. COND. ALONG ROWS FOR LAYER   1
 READING ON UNIT   15 WITH FORMAT: (100E15.6)          

      VERTICAL HYD. COND. =   0.00000     FOR LAYER   1

 WEL -- WELL PACKAGE, VERSION 7, 5/2/2005 INPUT READ FROM UNIT   20
 # WEL package for  MODFLOW-2005, generated by Flopy.
 No named parameters
 MAXIMUM OF      1 ACTIVE WELLS AT ONE TIME


     0 Well parameters

 PCG -- CONJUGATE-GRADIENT SOLUTION PACKAGE, VERSION 7, 5/2/2005
 # PCG package for  MODFLOW-2005, generated by Flopy.
 MAXIMUM OF     50 CALLS OF SOLUTION ROUTINE
 MAXIMUM OF     30 INTERNAL ITERATIONS PER CALL TO SOLUTION ROUTINE
 MATRIX PRECONDITIONING TYPE :    1



                                    SOLUTION BY THE CONJUGATE-GRADIENT METHOD
                                   -------------------------------------------
                    MAXIMUM NUMBER OF CALLS TO PCG ROUTINE =       50
                        MAXIMUM ITERATIONS PER CALL TO PCG =       30
                               MATRIX PRECONDITIONING TYPE =        1
        RELAXATION FACTOR (ONLY USED WITH PRECOND. TYPE 1) =    0.10000E+01
 PARAMETER OF POLYNOMIAL PRECOND. = 2 (2) OR IS CALCULATED :        0
                         HEAD CHANGE CRITERION FOR CLOSURE =    0.10000E-04
                     RESIDUAL CHANGE CRITERION FOR CLOSURE =    0.10000E-04
            PCG HEAD AND RESIDUAL CHANGE PRINTOUT INTERVAL =      999
     PRINTING FROM SOLVER IS LIMITED(1) OR SUPPRESSED (>1) =        3
                            STEADY-STATE DAMPING PARAMETER =    0.10000E+01
                               TRANSIENT DAMPING PARAMETER =    0.10000E+01
1
                            STRESS PERIOD NO.    1, LENGTH =   1.000000    
                            -----------------------------------------------

                              NUMBER OF TIME STEPS =     1

                               MULTIPLIER FOR DELT =     1.000

                            INITIAL TIME STEP SIZE =   1.000000    

 WELL NO.  LAYER   ROW   COL   STRESS RATE         
 --------------------------------------------------
      1      1     51     51     -0.3000E-02

      1 WELL 

 SOLVING FOR HEAD 

 OUTPUT CONTROL FOR STRESS PERIOD    1   TIME STEP    1
    PRINT HEAD FOR ALL LAYERS
    PRINT BUDGET
    SAVE HEAD FOR ALL LAYERS
    SAVE BUDGET
 UBDSV2 SAVING "   CONSTANT HEAD" ON UNIT  53 AT TIME STEP  1, STRESS PERIOD   1
 UBDSV1 SAVING "FLOW RIGHT FACE " ON UNIT  53 AT TIME STEP  1, STRESS PERIOD   1
 UBDSV1 SAVING "FLOW FRONT FACE " ON UNIT  53 AT TIME STEP  1, STRESS PERIOD   1
1
              HEAD IN LAYER   1 AT END OF TIME STEP   1 IN STRESS PERIOD    1
  ---------------------------------------------------------------------------

            1           2           3           4           5           6           7           8           9          10
           11          12          13          14          15          16          17          18          19          20
           21          22          23          24          25          26          27          28          29          30
           31          32          33          34          35          36          37          38          39          40
           41          42          43          44          45          46          47          48          49          50
           51          52          53          54          55          56          57          58          59          60
           61          62          63          64          65          66          67          68          69          70
           71          72          73          74          75          76          77          78          79          80
           81          82          83          84          85          86          87          88          89          90
           91          92          93          94          95          96          97          98          99         100
 ........................................................................................................................
   1    1.000      0.9910      0.9820      0.9730      0.9639      0.9546      0.9452      0.9356      0.9259      0.9159    
       0.9056      0.8952      0.8844      0.8734      0.8622      0.8507      0.8391      0.8272      0.8151      0.8029    
       0.7906      0.7781      0.7657      0.7532      0.7407      0.7284      0.7162      0.7042      0.6925      0.6813    
       0.6704      0.6601      0.6504      0.6414      0.6329      0.6252      0.6180      0.6112      0.6044      0.5975    
       0.5906      0.5842      0.5787      0.5733      0.5669      0.5600      0.5530      0.5461      0.5388      0.5310    
       0.5227      0.5140      0.5051      0.4961      0.4871      0.4780      0.4687      0.4591      0.4494      0.4395    
       0.4297      0.4201      0.4105      0.4012      0.3920      0.3830      0.3742      0.3656      0.3571      0.3487    
       0.3404      0.3322      0.3240      0.3158      0.3075      0.2993      0.2909      0.2823      0.2736      0.2647    
       0.2554      0.2458      0.2358      0.2254      0.2145      0.2031      0.1912      0.1787      0.1658      0.1523    
       0.1384      0.1241      0.1094      9.4339E-02  7.9039E-02  6.3510E-02  4.7795E-02  3.1942E-02  1.5997E-02   0.000    
   2    1.000      0.9911      0.9821      0.9731      0.9640      0.9547      0.9454      0.9358      0.9261      0.9161    
       0.9059      0.8954      0.8847      0.8737      0.8624      0.8510      0.8393      0.8274      0.8153      0.8030    
       0.7907      0.7782      0.7657      0.7531      0.7406      0.7282      0.7160      0.7039      0.6922      0.6808    
       0.6699      0.6596      0.6498      0.6407      0.6322      0.6245      0.6178      0.6112      0.6045      0.5975    
       0.5901      0.5833      0.5787      0.5742      0.5674      0.5601      0.5531      0.5463      0.5394      0.5315    
       0.5231      0.5142      0.5052      0.4962      0.4872      0.4782      0.4689      0.4593      0.4495      0.4395    
       0.4296      0.4199      0.4104      0.4010      0.3918      0.3829      0.3741      0.3654      0.3570      0.3486    
       0.3403      0.3321      0.3240      0.3158      0.3076      0.2994      0.2910      0.2825      0.2739      0.2649    
       0.2558      0.2462      0.2363      0.2259      0.2150      0.2036      0.1917      0.1793      0.1663      0.1528    
       0.1388      0.1244      0.1097      9.4615E-02  7.9269E-02  6.3695E-02  4.7935E-02  3.2037E-02  1.6041E-02   0.000    
   3    1.000      0.9911      0.9822      0.9732      0.9642      0.9550      0.9457      0.9362      0.9265      0.9166    
       0.9064      0.8959      0.8852      0.8742      0.8629      0.8514      0.8397      0.8277      0.8156      0.8033    
       0.7908      0.7783      0.7657      0.7531      0.7405      0.7279      0.7155      0.7033      0.6914      0.6798    
       0.6688      0.6584      0.6486      0.6394      0.6308      0.6229      0.6172      0.6114      0.6050      0.5978    
       0.5891      0.5816      0.5787      0.5758      0.5684      0.5598      0.5529      0.5467      0.5409      0.5326    
       0.5238      0.5146      0.5052      0.4962      0.4874      0.4786      0.4695      0.4598      0.4496      0.4394    
       0.4293      0.4195      0.4100      0.4006      0.3915      0.3825      0.3737      0.3651      0.3567      0.3484    
       0.3402      0.3321      0.3240      0.3159      0.3077      0.2996      0.2913      0.2829      0.2743      0.2655    
       0.2564      0.2470      0.2372      0.2268      0.2160      0.2047      0.1928      0.1803      0.1673      0.1537    
       0.1396      0.1252      0.1103      9.5166E-02  7.9729E-02  6.4064E-02  4.8214E-02  3.2222E-02  1.6135E-02   0.000    
   4    1.000      0.9912      0.9824      0.9735      0.9645      0.9555      0.9462      0.9368      0.9272      0.9173    
       0.9072      0.8967      0.8860      0.8749      0.8636      0.8521      0.8403      0.8283      0.8160      0.8036    
       0.7911      0.7785      0.7657      0.7530      0.7402      0.7275      0.7149      0.7024      0.6902      0.6784    
       0.6671      0.6566      0.6468      0.6374      0.6288      0.6209      0.6171      0.6117      0.6055      0.5988    
       0.5918      0.5843      0.5787      0.5731      0.5657      0.5588      0.5524      0.5468      0.5428      0.5343    
       0.5251      0.5150      0.5050      0.4959      0.4875      0.4793      0.4708      0.4607      0.4498      0.4391    
       0.4288      0.4189      0.4094      0.4001      0.3909      0.3820      0.3732      0.3647      0.3563      0.3481    
       0.3400      0.3320      0.3239      0.3159      0.3079      0.2998      0.2917      0.2834      0.2750      0.2664    
       0.2575      0.2482      0.2385      0.2283      0.2176      0.2063      0.1944      0.1819      0.1688      0.1551    
       0.1409      0.1263      0.1113      9.5989E-02  8.0417E-02  6.4618E-02  4.8632E-02  3.2503E-02  1.6277E-02   0.000    
   5    1.000      0.9913      0.9826      0.9739      0.9650      0.9561      0.9470      0.9377      0.9281      0.9183    
       0.9082      0.8978      0.8870      0.8760      0.8646      0.8530      0.8411      0.8290      0.8167      0.8042    
       0.7915      0.7787      0.7658      0.7529      0.7399      0.7270      0.7141      0.7013      0.6887      0.6764    
       0.6646      0.6540      0.6447      0.6360      0.6314      0.6245      0.6187      0.6125      0.6060      0.5992    
       0.5922      0.5852      0.5787      0.5722      0.5652      0.5583      0.5516      0.5452      0.5390      0.5313    
       0.5261      0.5155      0.5039      0.4950      0.4873      0.4804      0.4736      0.4624      0.4500      0.4384    
       0.4278      0.4180      0.4086      0.3994      0.3902      0.3812      0.3725      0.3641      0.3558      0.3477    
       0.3397      0.3318      0.3239      0.3160      0.3081      0.3002      0.2922      0.2841      0.2759      0.2676    
       0.2589      0.2499      0.2403      0.2303      0.2197      0.2085      0.1967      0.1841      0.1709      0.1570    
       0.1426      0.1278      0.1126      9.7080E-02  8.1331E-02  6.5357E-02  4.9195E-02  3.2884E-02  1.6469E-02   0.000    
   6    1.000      0.9915      0.9829      0.9743      0.9656      0.9568      0.9479      0.9387      0.9293      0.9196    
       0.9096      0.8992      0.8884      0.8773      0.8659      0.8542      0.8422      0.8299      0.8175      0.8049    
       0.7920      0.7791      0.7660      0.7528      0.7396      0.7264      0.7131      0.7000      0.6869      0.6739    
       0.6610      0.6520      0.6476      0.6403      0.6339      0.6271      0.6205      0.6137      0.6068      0.5998    
       0.5927      0.5856      0.5786      0.5717      0.5646      0.5576      0.5505      0.5436      0.5365      0.5289    
       0.5211      0.5110      0.5020      0.4939      0.4868      0.4809      0.4772      0.4653      0.4492      0.4367    
       0.4261      0.4167      0.4078      0.3985      0.3892      0.3802      0.3716      0.3632      0.3552      0.3472    
       0.3394      0.3316      0.3239      0.3161      0.3084      0.3006      0.2928      0.2850      0.2770      0.2690    
       0.2607      0.2520      0.2427      0.2328      0.2224      0.2114      0.1997      0.1871      0.1736      0.1594    
       0.1447      0.1296      0.1141      9.8429E-02  8.2467E-02  6.6285E-02  4.9907E-02  3.3368E-02  1.6714E-02   0.000    
   7    1.000      0.9916      0.9832      0.9748      0.9663      0.9577      0.9490      0.9400      0.9308      0.9213    
       0.9114      0.9010      0.8902      0.8790      0.8674      0.8556      0.8435      0.8311      0.8185      0.8057    
       0.7927      0.7796      0.7663      0.7528      0.7393      0.7257      0.7121      0.6986      0.6850      0.6714    
       0.6617      0.6562      0.6505      0.6437      0.6368      0.6296      0.6223      0.6151      0.6078      0.6005    
       0.5931      0.5858      0.5786      0.5714      0.5641      0.5568      0.5494      0.5420      0.5345      0.5266    
       0.5185      0.5097      0.5011      0.4930      0.4854      0.4788      0.4739      0.4605      0.4449      0.4331    
       0.4232      0.4148      0.4072      0.3978      0.3879      0.3788      0.3703      0.3622      0.3543      0.3466    
       0.3390      0.3314      0.3239      0.3163      0.3087      0.3011      0.2934      0.2858      0.2782      0.2707    
       0.2630      0.2549      0.2455      0.2357      0.2256      0.2151      0.2035      0.1908      0.1771      0.1624    
       0.1473      0.1318      0.1160      0.1000      8.3824E-02  6.7409E-02  5.0781E-02  3.3968E-02  1.7020E-02   0.000    
   8    1.000      0.9918      0.9836      0.9753      0.9671      0.9587      0.9503      0.9416      0.9327      0.9233    
       0.9135      0.9032      0.8923      0.8810      0.8693      0.8573      0.8450      0.8325      0.8197      0.8067    
       0.7936      0.7802      0.7666      0.7529      0.7390      0.7251      0.7111      0.6971      0.6831      0.6730    
       0.6669      0.6608      0.6543      0.6473      0.6398      0.6321      0.6243      0.6165      0.6087      0.6011    
       0.5935      0.5860      0.5785      0.5711      0.5636      0.5560      0.5483      0.5406      0.5327      0.5247    
       0.5166      0.5082      0.4997      0.4914      0.4832      0.4749      0.4658      0.4525      0.4408      0.4303    
       0.4211      0.4133      0.4079      0.3974      0.3858      0.3768      0.3686      0.3609      0.3534      0.3460    
       0.3386      0.3312      0.3238      0.3164      0.3090      0.3015      0.2941      0.2867      0.2794      0.2724    
       0.2657      0.2589      0.2489      0.2389      0.2294      0.2197      0.2084      0.1957      0.1814      0.1660    
       0.1502      0.1342      0.1181      0.1018      8.5401E-02  6.8745E-02  5.1838E-02  3.4704E-02  1.7398E-02   0.000    
   9    1.000      0.9920      0.9839      0.9759      0.9680      0.9599      0.9518      0.9434      0.9349      0.9259    
       0.9163      0.9059      0.8949      0.8834      0.8714      0.8592      0.8468      0.8341      0.8212      0.8080    
       0.7946      0.7810      0.7672      0.7531      0.7389      0.7245      0.7102      0.6958      0.6852      0.6788    
       0.6723      0.6657      0.6588      0.6513      0.6432      0.6347      0.6261      0.6178      0.6096      0.6017    
       0.5939      0.5862      0.5785      0.5708      0.5631      0.5553      0.5473      0.5392      0.5311      0.5230    
       0.5149      0.5066      0.4983      0.4897      0.4810      0.4719      0.4620      0.4507      0.4395      0.4290    
       0.4195      0.4110      0.4028      0.3925      0.3835      0.3753      0.3676      0.3601      0.3528      0.3456    
       0.3384      0.3311      0.3238      0.3165      0.3091      0.3017      0.2944      0.2871      0.2799      0.2731    
       0.2671      0.2626      0.2524      0.2416      0.2335      0.2260      0.2146      0.2022      0.1867      0.1700    
       0.1532      0.1367      0.1202      0.1038      8.7214E-02  7.0332E-02  5.3124E-02  3.5611E-02  1.7867E-02   0.000    
  10    1.000      0.9921      0.9843      0.9765      0.9689      0.9612      0.9534      0.9455      0.9375      0.9290    
       0.9198      0.9093      0.8980      0.8861      0.8739      0.8614      0.8488      0.8359      0.8228      0.8095    
       0.7959      0.7821      0.7679      0.7534      0.7388      0.7240      0.7092      0.6983      0.6915      0.6847    
       0.6779      0.6709      0.6637      0.6559      0.6471      0.6373      0.6278      0.6189      0.6104      0.6021    
       0.5941      0.5863      0.5784      0.5706      0.5627      0.5547      0.5465      0.5380      0.5293      0.5213    
       0.5133      0.5053      0.4969      0.4883      0.4793      0.4698      0.4596      0.4487      0.4376      0.4268    
       0.4171      0.4082      0.3997      0.3910      0.3827      0.3748      0.3673      0.3600      0.3528      0.3456    
       0.3384      0.3312      0.3239      0.3165      0.3092      0.3017      0.2943      0.2869      0.2796      0.2724    
       0.2655      0.2584      0.2493      0.2415      0.2352      0.2311      0.2220      0.2118      0.1933      0.1740    
       0.1561      0.1390      0.1225      0.1060      8.9307E-02  7.2244E-02  5.4714E-02  3.6749E-02  1.8459E-02   0.000    
  11    1.000      0.9923      0.9845      0.9768      0.9699      0.9627      0.9552      0.9478      0.9405      0.9329    
       0.9244      0.9137      0.9017      0.8892      0.8766      0.8638      0.8510      0.8380      0.8247      0.8112    
       0.7975      0.7834      0.7689      0.7540      0.7388      0.7236      0.7122      0.7049      0.6977      0.6906    
       0.6835      0.6765      0.6693      0.6615      0.6521      0.6395      0.6290      0.6195      0.6108      0.6024    
       0.5943      0.5863      0.5784      0.5705      0.5625      0.5544      0.5459      0.5369      0.5270      0.5195    
       0.5120      0.5041      0.4959      0.4872      0.4780      0.4683      0.4579      0.4468      0.4352      0.4236    
       0.4137      0.4050      0.3970      0.3891      0.3814      0.3740      0.3668      0.3597      0.3526      0.3456    
       0.3384      0.3313      0.3240      0.3166      0.3092      0.3017      0.2942      0.2867      0.2791      0.2716    
       0.2640      0.2562      0.2479      0.2401      0.2331      0.2272      0.2218      0.2209      0.2005      0.1768    
       0.1580      0.1409      0.1246      0.1083      9.1788E-02  7.4623E-02  5.6740E-02  3.8210E-02  1.9221E-02   0.000    
  12    1.000      0.9924      0.9847      0.9764      0.9706      0.9646      0.9567      0.9499      0.9437      0.9379    
       0.9314      0.9192      0.9058      0.8925      0.8794      0.8664      0.8534      0.8402      0.8268      0.8132    
       0.7994      0.7853      0.7704      0.7548      0.7390      0.7270      0.7193      0.7116      0.7039      0.6964    
       0.6891      0.6821      0.6754      0.6686      0.6603      0.6467      0.6319      0.6207      0.6108      0.6017    
       0.5930      0.5846      0.5763      0.5680      0.5597      0.5511      0.5421      0.5313      0.5224      0.5176    
       0.5109      0.5034      0.4952      0.4865      0.4773      0.4675      0.4569      0.4456      0.4330      0.4185    
       0.4091      0.4013      0.3940      0.3869      0.3799      0.3731      0.3662      0.3594      0.3525      0.3456    
       0.3386      0.3314      0.3242      0.3168      0.3093      0.3018      0.2941      0.2864      0.2786      0.2708    
       0.2627      0.2545      0.2461      0.2378      0.2299      0.2228      0.2172      0.2079      0.1910      0.1746    
       0.1581      0.1422      0.1266      0.1111      9.4874E-02  7.7718E-02  5.9412E-02  4.0131E-02  2.0214E-02   0.000    
  13    1.000      0.9925      0.9851      0.9778      0.9706      0.9636      0.9569      0.9507      0.9452      0.9406    
       0.9378      0.9259      0.9099      0.8957      0.8820      0.8689      0.8559      0.8427      0.8292      0.8154    
       0.8016      0.7878      0.7725      0.7558      0.7430      0.7346      0.7263      0.7181      0.7100      0.7020    
       0.6944      0.6876      0.6817      0.6773      0.6654      0.6490      0.6342      0.6215      0.6103      0.6000    
       0.5904      0.5811      0.5720      0.5631      0.5542      0.5453      0.5363      0.5272      0.5197      0.5132    
       0.5061      0.4984      0.4900      0.4812      0.4718      0.4617      0.4508      0.4384      0.4223      0.4082    
       0.4030      0.3970      0.3909      0.3847      0.3784      0.3720      0.3656      0.3591      0.3525      0.3457    
       0.3388      0.3317      0.3245      0.3171      0.3095      0.3019      0.2941      0.2862      0.2782      0.2701    
       0.2617      0.2530      0.2441      0.2350      0.2260      0.2169      0.2072      0.1941      0.1859      0.1724    
       0.1577      0.1431      0.1285      0.1144      9.8940E-02  8.1963E-02  6.3061E-02  4.2685E-02  2.1506E-02   0.000    
  14    1.000      0.9925      0.9850      0.9776      0.9704      0.9633      0.9565      0.9501      0.9441      0.9390    
       0.9353      0.9249      0.9122      0.8982      0.8843      0.8712      0.8585      0.8456      0.8320      0.8175    
       0.8038      0.7920      0.7760      0.7608      0.7512      0.7421      0.7333      0.7245      0.7158      0.7074    
       0.6990      0.6920      0.6865      0.6817      0.6683      0.6497      0.6343      0.6208      0.6088      0.5977    
       0.5873      0.5773      0.5676      0.5582      0.5489      0.5396      0.5304      0.5215      0.5132      0.5053    
       0.4973      0.4890      0.4802      0.4711      0.4615      0.4513      0.4403      0.4279      0.4129      0.4030    
       0.3976      0.3928      0.3878      0.3825      0.3769      0.3711      0.3651      0.3589      0.3525      0.3460    
       0.3392      0.3322      0.3250      0.3175      0.3098      0.3021      0.2942      0.2862      0.2780      0.2696    
       0.2609      0.2517      0.2422      0.2323      0.2222      0.2116      0.2006      0.1889      0.1779      0.1653    
       0.1575      0.1439      0.1299      0.1192      0.1045      8.8133E-02  6.8184E-02  4.6043E-02  2.3123E-02   0.000    
  15    1.000      0.9924      0.9849      0.9774      0.9700      0.9627      0.9557      0.9489      0.9424      0.9360    
       0.9293      0.9203      0.9141      0.9007      0.8856      0.8732      0.8613      0.8491      0.8357      0.8190    
       0.8039      0.7962      0.7848      0.7702      0.7590      0.7492      0.7401      0.7310      0.7214      0.7126    
       0.7022      0.6949      0.6905      0.6801      0.6634      0.6472      0.6323      0.6188      0.6064      0.5948    
       0.5838      0.5732      0.5631      0.5531      0.5434      0.5338      0.5244      0.5152      0.5063      0.4976    
       0.4889      0.4800      0.4709      0.4615      0.4518      0.4416      0.4310      0.4199      0.4084      0.3985    
       0.3916      0.3889      0.3851      0.3806      0.3756      0.3703      0.3647      0.3589      0.3528      0.3465    
       0.3399      0.3330      0.3257      0.3181      0.3103      0.3024      0.2944      0.2863      0.2781      0.2695    
       0.2605      0.2508      0.2406      0.2299      0.2187      0.2069      0.1947      0.1829      0.1715      0.1603    
       0.1500      0.1378      0.1290      0.1235      0.1118      9.7867E-02  7.5500E-02  5.0180E-02  2.4941E-02   0.000    
  16    1.000      0.9923      0.9846      0.9770      0.9694      0.9620      0.9546      0.9474      0.9404      0.9333    
       0.9257      0.9172      0.9083      0.8962      0.8849      0.8739      0.8628      0.8514      0.8393      0.8262    
       0.8114      0.7999      0.7882      0.7762      0.7654      0.7558      0.7468      0.7380      0.7263      0.7193    
       0.7072      0.6950      0.6857      0.6726      0.6580      0.6433      0.6291      0.6157      0.6031      0.5912    
       0.5798      0.5688      0.5582      0.5479      0.5378      0.5279      0.5181      0.5086      0.4992      0.4899    
       0.4806      0.4712      0.4618      0.4522      0.4424      0.4325      0.4224      0.4122      0.4022      0.3933    
       0.3881      0.3861      0.3830      0.3791      0.3747      0.3698      0.3646      0.3591      0.3533      0.3473    
       0.3409      0.3340      0.3267      0.3189      0.3108      0.3027      0.2947      0.2866      0.2784      0.2699    
       0.2608      0.2505      0.2395      0.2280      0.2158      0.2025      0.1885      0.1763      0.1651      0.1545    
       0.1443      0.1342      0.1256      0.1184      0.1109      0.1070      8.5768E-02  5.4237E-02  2.6462E-02   0.000    
  17    1.000      0.9922      0.9844      0.9766      0.9688      0.9610      0.9534      0.9459      0.9385      0.9310    
       0.9231      0.9147      0.9056      0.8952      0.8847      0.8740      0.8632      0.8520      0.8404      0.8282    
       0.8155      0.8037      0.7920      0.7808      0.7707      0.7616      0.7534      0.7479      0.7342      0.7193    
       0.7054      0.6922      0.6799      0.6667      0.6528      0.6388      0.6251      0.6119      0.5992      0.5870    
       0.5753      0.5640      0.5531      0.5424      0.5320      0.5218      0.5117      0.5018      0.4919      0.4821    
       0.4724      0.4626      0.4528      0.4430      0.4333      0.4235      0.4139      0.4042      0.3951      0.3896    
       0.3864      0.3846      0.3818      0.3782      0.3741      0.3696      0.3647      0.3596      0.3541      0.3484    
       0.3423      0.3356      0.3283      0.3199      0.3114      0.3031      0.2950      0.2869      0.2789      0.2710    
       0.2624      0.2506      0.2390      0.2269      0.2138      0.1989      0.1806      0.1686      0.1581      0.1482    
       0.1385      0.1293      0.1208      0.1135      0.1073      0.1037      8.5477E-02  5.4538E-02  2.6669E-02   0.000    
  18    1.000      0.9921      0.9841      0.9761      0.9681      0.9600      0.9520      0.9443      0.9366      0.9290    
       0.9211      0.9128      0.9040      0.8945      0.8846      0.8743      0.8639      0.8532      0.8421      0.8305    
       0.8188      0.8073      0.7954      0.7844      0.7748      0.7665      0.7575      0.7525      0.7376      0.7184    
       0.7028      0.6886      0.6751      0.6615      0.6478      0.6341      0.6206      0.6074      0.5947      0.5824    
       0.5705      0.5589      0.5477      0.5368      0.5260      0.5155      0.5051      0.4948      0.4846      0.4744    
       0.4642      0.4540      0.4439      0.4339      0.4240      0.4145      0.4055      0.3957      0.3896      0.3883    
       0.3864      0.3841      0.3813      0.3779      0.3740      0.3698      0.3652      0.3603      0.3552      0.3498    
       0.3442      0.3380      0.3308      0.3209      0.3119      0.3034      0.2952      0.2872      0.2795      0.2726    
       0.2673      0.2525      0.2361      0.2217      0.2060      0.1852      0.1665      0.1593      0.1507      0.1416    
       0.1324      0.1234      0.1150      0.1074      0.1012      9.7210E-02  7.9977E-02  5.1769E-02  2.5676E-02   0.000    
  19    1.000      0.9920      0.9839      0.9757      0.9674      0.9590      0.9504      0.9425      0.9349      0.9272    
       0.9195      0.9116      0.9032      0.8942      0.8847      0.8748      0.8649      0.8547      0.8442      0.8330    
       0.8220      0.8113      0.7978      0.7867      0.7778      0.7720      0.7597      0.7468      0.7306      0.7141    
       0.6987      0.6842      0.6702      0.6564      0.6427      0.6291      0.6157      0.6026      0.5898      0.5774    
       0.5653      0.5535      0.5420      0.5308      0.5199      0.5091      0.4985      0.4879      0.4773      0.4667    
       0.4559      0.4452      0.4347      0.4247      0.4146      0.4047      0.3981      0.3925      0.3907      0.3888    
       0.3867      0.3842      0.3813      0.3780      0.3743      0.3703      0.3660      0.3614      0.3565      0.3516    
       0.3466      0.3415      0.3360      0.3244      0.3116      0.3017      0.2927      0.2842      0.2758      0.2676    
       0.2587      0.2435      0.2282      0.2128      0.1956      0.1743      0.1592      0.1516      0.1436      0.1351    
       0.1261      0.1171      0.1083      0.1000      9.2675E-02  8.7083E-02  6.8559E-02  4.6884E-02  2.4267E-02   0.000    
  20    1.000      0.9919      0.9838      0.9755      0.9669      0.9580      0.9481      0.9406      0.9331      0.9254    
       0.9181      0.9107      0.9029      0.8945      0.8851      0.8755      0.8660      0.8567      0.8472      0.8351    
       0.8250      0.8179      0.8027      0.7871      0.7760      0.7662      0.7525      0.7387      0.7238      0.7086    
       0.6937      0.6793      0.6652      0.6513      0.6376      0.6240      0.6106      0.5974      0.5846      0.5720    
       0.5597      0.5478      0.5361      0.5247      0.5135      0.5026      0.4917      0.4809      0.4701      0.4590    
       0.4477      0.4363      0.4252      0.4154      0.4048      0.3981      0.3966      0.3941      0.3919      0.3897    
       0.3873      0.3847      0.3818      0.3785      0.3749      0.3711      0.3671      0.3627      0.3579      0.3534    
       0.3493      0.3452      0.3353      0.3209      0.3084      0.2975      0.2875      0.2779      0.2684      0.2587    
       0.2478      0.2347      0.2204      0.2055      0.1895      0.1722      0.1557      0.1443      0.1369      0.1291    
       0.1198      0.1105      0.1010      9.1779E-02  8.2421E-02  7.1731E-02  5.5214E-02  4.4894E-02  2.4508E-02   0.000    
  21    1.000      0.9917      0.9832      0.9745      0.9652      0.9537      0.9434      0.9385      0.9316      0.9233    
       0.9167      0.9102      0.9034      0.8959      0.8857      0.8760      0.8669      0.8588      0.8528      0.8386    
       0.8240      0.8126      0.7977      0.7836      0.7709      0.7588      0.7455      0.7318      0.7174      0.7029    
       0.6884      0.6740      0.6599      0.6460      0.6323      0.6186      0.6052      0.5920      0.5790      0.5663    
       0.5539      0.5417      0.5299      0.5183      0.5070      0.4959      0.4849      0.4740      0.4630      0.4516    
       0.4396      0.4269      0.4144      0.4071      0.4012      0.3994      0.3975      0.3953      0.3931      0.3907    
       0.3882      0.3855      0.3825      0.3793      0.3758      0.3722      0.3685      0.3644      0.3590      0.3547    
       0.3518      0.3427      0.3287      0.3156      0.3035      0.2923      0.2818      0.2715      0.2613      0.2507    
       0.2394      0.2269      0.2134      0.1993      0.1845      0.1694      0.1546      0.1408      0.1308      0.1244    
       0.1136      0.1040      9.3542E-02  8.3637E-02  7.3501E-02  6.2204E-02  4.8752E-02  3.4939E-02  1.6621E-02   0.000    
  22    1.000      0.9913      0.9824      0.9734      0.9639      0.9540      0.9445      0.9371      0.9278      0.9194    
       0.9154      0.9100      0.9044      0.9000      0.8881      0.8751      0.8648      0.8555      0.8462      0.8322    
       0.8186      0.8057      0.7920      0.7785      0.7654      0.7524      0.7391      0.7253      0.7113      0.6970    
       0.6828      0.6686      0.6545      0.6406      0.6268      0.6131      0.5996      0.5863      0.5732      0.5604    
       0.5478      0.5354      0.5234      0.5116      0.5002      0.4891      0.4781      0.4673      0.4563      0.4449    
       0.4323      0.4173      0.4062      0.4050      0.4028      0.4008      0.3988      0.3966      0.3943      0.3919    
       0.3894      0.3866      0.3835      0.3803      0.3768      0.3734      0.3704      0.3673      0.3596      0.3516    
       0.3448      0.3334      0.3213      0.3093      0.2977      0.2865      0.2758      0.2652      0.2545      0.2436    
       0.2321      0.2199      0.2071      0.1938      0.1800      0.1662      0.1526      0.1399      0.1288      0.1173    
       0.1061      9.8467E-02  8.5492E-02  7.5727E-02  6.5740E-02  5.4832E-02  4.2653E-02  2.9490E-02  1.4759E-02   0.000    
  23    1.000      0.9910      0.9818      0.9726      0.9632      0.9537      0.9446      0.9361      0.9275      0.9197    
       0.9137      0.9076      0.9011      0.8939      0.8821      0.8705      0.8596      0.8490      0.8380      0.8255    
       0.8125      0.7995      0.7863      0.7729      0.7597      0.7464      0.7330      0.7192      0.7053      0.6913    
       0.6771      0.6630      0.6490      0.6350      0.6212      0.6074      0.5938      0.5804      0.5672      0.5542    
       0.5414      0.5288      0.5166      0.5047      0.4931      0.4820      0.4712      0.4607      0.4501      0.4392    
       0.4276      0.4147      0.4071      0.4060      0.4042      0.4023      0.4002      0.3980      0.3957      0.3933    
       0.3907      0.3879      0.3847      0.3816      0.3776      0.3744      0.3722      0.3648      0.3538      0.3444    
       0.3353      0.3249      0.3138      0.3025      0.2914      0.2804      0.2696      0.2589      0.2480      0.2370    
       0.2255      0.2136      0.2013      0.1886      0.1756      0.1626      0.1498      0.1374      0.1256      0.1137    
       0.1021      8.8071E-02  7.4231E-02  6.8040E-02  5.8900E-02  4.8733E-02  3.7536E-02  2.5603E-02  1.2930E-02   0.000    
  24    1.000      0.9907      0.9814      0.9720      0.9626      0.9532      0.9440      0.9351      0.9265      0.9183    
       0.9108      0.9032      0.8953      0.8866      0.8761      0.8651      0.8541      0.8429      0.8314      0.8192    
       0.8065      0.7936      0.7805      0.7673      0.7540      0.7406      0.7271      0.7134      0.6995      0.6855    
       0.6715      0.6574      0.6433      0.6293      0.6154      0.6016      0.5879      0.5743      0.5609      0.5477    
       0.5347      0.5220      0.5095      0.4973      0.4857      0.4746      0.4641      0.4540      0.4441      0.4342    
       0.4240      0.4142      0.4088      0.4076      0.4058      0.4038      0.4017      0.3995      0.3973      0.3949    
       0.3924      0.3895      0.3860      0.3837      0.3776      0.3713      0.3657      0.3562      0.3464      0.3368    
       0.3272      0.3170      0.3065      0.2957      0.2849      0.2741      0.2634      0.2526      0.2418      0.2307    
       0.2194      0.2078      0.1959      0.1837      0.1713      0.1589      0.1465      0.1343      0.1222      0.1099    
       9.6819E-02  8.0815E-02  6.8886E-02  6.3302E-02  5.3089E-02  4.3662E-02  3.3154E-02  2.2458E-02  1.1361E-02   0.000    
  25    1.000      0.9905      0.9810      0.9714      0.9619      0.9524      0.9431      0.9339      0.9249      0.9162    
       0.9078      0.8992      0.8904      0.8809      0.8706      0.8597      0.8486      0.8372      0.8255      0.8133    
       0.8008      0.7880      0.7749      0.7617      0.7484      0.7350      0.7214      0.7077      0.6938      0.6798    
       0.6658      0.6517      0.6376      0.6236      0.6096      0.5956      0.5818      0.5681      0.5545      0.5411    
       0.5278      0.5148      0.5020      0.4895      0.4776      0.4665      0.4566      0.4473      0.4382      0.4295    
       0.4202      0.4143      0.4118      0.4097      0.4076      0.4055      0.4033      0.4011      0.3989      0.3966    
       0.3943      0.3918      0.3861      0.3797      0.3717      0.3642      0.3568      0.3480      0.3387      0.3292    
       0.3196      0.3096      0.2993      0.2889      0.2784      0.2678      0.2572      0.2465      0.2357      0.2248    
       0.2137      0.2023      0.1907      0.1789      0.1670      0.1550      0.1431      0.1311      0.1192      0.1070    
       9.4368E-02  8.1176E-02  6.9087E-02  5.7709E-02  4.6489E-02  3.9671E-02  2.8961E-02  1.9715E-02  1.0055E-02   0.000    
  26    1.000      0.9903      0.9806      0.9709      0.9612      0.9515      0.9420      0.9325      0.9232      0.9140    
       0.9048      0.8956      0.8860      0.8761      0.8656      0.8547      0.8434      0.8319      0.8200      0.8078    
       0.7953      0.7825      0.7695      0.7563      0.7430      0.7295      0.7159      0.7021      0.6882      0.6742    
       0.6602      0.6460      0.6319      0.6178      0.6036      0.5896      0.5756      0.5617      0.5479      0.5343    
       0.5207      0.5074      0.4942      0.4812      0.4687      0.4574      0.4485      0.4403      0.4319      0.4253    
       0.4195      0.4168      0.4142      0.4118      0.4095      0.4072      0.4049      0.4027      0.4006      0.3985    
       0.3963      0.3904      0.3814      0.3734      0.3653      0.3572      0.3490      0.3403      0.3312      0.3218    
       0.3122      0.3024      0.2924      0.2822      0.2719      0.2615      0.2510      0.2405      0.2298      0.2190    
       0.2081      0.1970      0.1857      0.1743      0.1628      0.1512      0.1396      0.1280      0.1163      0.1045    
       9.2491E-02  8.0434E-02  6.8772E-02  5.7470E-02  4.6278E-02  3.4650E-02  2.3305E-02  1.7388E-02  9.1461E-03   0.000    
  27    1.000      0.9901      0.9802      0.9703      0.9604      0.9506      0.9408      0.9310      0.9213      0.9117    
       0.9020      0.8922      0.8821      0.8718      0.8611      0.8500      0.8386      0.8269      0.8149      0.8026    
       0.7900      0.7772      0.7642      0.7510      0.7376      0.7241      0.7105      0.6967      0.6828      0.6687    
       0.6546      0.6404      0.6262      0.6119      0.5977      0.5835      0.5693      0.5552      0.5412      0.5273    
       0.5135      0.4998      0.4861      0.4725      0.4587      0.4457      0.4396      0.4335      0.4278      0.4256    
       0.4221      0.4191      0.4164      0.4138      0.4113      0.4088      0.4065      0.4043      0.4023      0.4003    
       0.3944      0.3849      0.3758      0.3673      0.3588      0.3504      0.3419      0.3331      0.3240      0.3147    
       0.3052      0.2955      0.2856      0.2756      0.2655      0.2552      0.2449      0.2345      0.2240      0.2134    
       0.2027      0.1919      0.1809      0.1698      0.1586      0.1474      0.1361      0.1248      0.1135      0.1021    
       9.0694E-02  7.9295E-02  6.8094E-02  5.7115E-02  4.6288E-02  3.5543E-02  2.5166E-02  1.7268E-02  8.8713E-03   0.000    
  28    1.000      0.9899      0.9798      0.9697      0.9596      0.9495      0.9395      0.9294      0.9194      0.9094    
       0.8992      0.8890      0.8786      0.8679      0.8569      0.8456      0.8340      0.8221      0.8100      0.7976    
       0.7850      0.7722      0.7591      0.7459      0.7325      0.7189      0.7052      0.6914      0.6774      0.6633    
       0.6491      0.6348      0.6205      0.6061      0.5917      0.5773      0.5629      0.5486      0.5344      0.5202    
       0.5061      0.4921      0.4781      0.4638      0.4478      0.4364      0.4351      0.4329      0.4297      0.4270    
       0.4241      0.4213      0.4185      0.4158      0.4131      0.4103      0.4078      0.4058      0.4040      0.3980    
       0.3882      0.3789      0.3698      0.3610      0.3523      0.3437      0.3349      0.3260      0.3170      0.3077    
       0.2983      0.2887      0.2790      0.2691      0.2591      0.2491      0.2389      0.2287      0.2184      0.2080    
       0.1975      0.1869      0.1761      0.1654      0.1545      0.1436      0.1327      0.1218      0.1108      9.9830E-02
       8.8863E-02  7.7958E-02  6.7193E-02  5.6607E-02  4.6212E-02  3.6062E-02  2.6364E-02  1.7527E-02  8.8035E-03   0.000    
  29    1.000      0.9897      0.9794      0.9691      0.9588      0.9485      0.9382      0.9279      0.9175      0.9071    
       0.8966      0.8860      0.8752      0.8642      0.8530      0.8415      0.8297      0.8177      0.8054      0.7929    
       0.7802      0.7673      0.7542      0.7409      0.7275      0.7139      0.7001      0.6862      0.6721      0.6580    
       0.6437      0.6293      0.6148      0.6002      0.5857      0.5711      0.5565      0.5420      0.5275      0.5131    
       0.4987      0.4845      0.4705      0.4568      0.4437      0.4372      0.4359      0.4338      0.4313      0.4287    
       0.4260      0.4233      0.4206      0.4179      0.4149      0.4113      0.4088      0.4072      0.4011      0.3912    
       0.3818      0.3725      0.3635      0.3546      0.3458      0.3370      0.3282      0.3192      0.3101      0.3009    
       0.2916      0.2821      0.2725      0.2627      0.2529      0.2430      0.2330      0.2230      0.2128      0.2026    
       0.1923      0.1819      0.1715      0.1610      0.1505      0.1399      0.1293      0.1187      0.1081      9.7527E-02
       8.6969E-02  7.6483E-02  6.6115E-02  5.5906E-02  4.5893E-02  3.6128E-02  2.6698E-02  1.7670E-02  8.8161E-03   0.000    
  30    1.000      0.9895      0.9790      0.9685      0.9580      0.9475      0.9369      0.9263      0.9157      0.9050    
       0.8942      0.8832      0.8721      0.8608      0.8493      0.8376      0.8257      0.8135      0.8011      0.7885    
       0.7757      0.7627      0.7495      0.7361      0.7226      0.7090      0.6951      0.6812      0.6670      0.6528    
       0.6384      0.6238      0.6092      0.5944      0.5797      0.5649      0.5501      0.5353      0.5206      0.5058    
       0.4911      0.4766      0.4625      0.4491      0.4416      0.4394      0.4374      0.4352      0.4328      0.4304    
       0.4278      0.4253      0.4227      0.4201      0.4175      0.4120      0.4064      0.4015      0.3931      0.3841    
       0.3750      0.3660      0.3570      0.3481      0.3393      0.3304      0.3215      0.3125      0.3035      0.2943    
       0.2850      0.2756      0.2661      0.2565      0.2468      0.2370      0.2272      0.2173      0.2073      0.1973    
       0.1872      0.1771      0.1669      0.1567      0.1464      0.1362      0.1259      0.1157      0.1054      9.5193E-02
       8.5006E-02  7.4889E-02  6.4878E-02  5.5012E-02  4.5327E-02  3.5857E-02  2.6629E-02  1.7638E-02  8.7903E-03   0.000    
  31    1.000      0.9893      0.9786      0.9679      0.9572      0.9465      0.9357      0.9248      0.9139      0.9029    
       0.8918      0.8806      0.8692      0.8577      0.8459      0.8340      0.8218      0.8095      0.7969      0.7842    
       0.7713      0.7582      0.7449      0.7315      0.7179      0.7042      0.6903      0.6763      0.6621      0.6477    
       0.6332      0.6185      0.6037      0.5887      0.5737      0.5586      0.5436      0.5286      0.5136      0.4986    
       0.4833      0.4683      0.4540      0.4459      0.4436      0.4413      0.4391      0.4368      0.4345      0.4321    
       0.4297      0.4273      0.4249      0.4224      0.4166      0.4081      0.4008      0.3938      0.3857      0.3771    
       0.3683      0.3594      0.3505      0.3416      0.3328      0.3239      0.3149      0.3059      0.2969      0.2877    
       0.2785      0.2692      0.2598      0.2503      0.2407      0.2311      0.2214      0.2117      0.2019      0.1921    
       0.1822      0.1723      0.1623      0.1524      0.1424      0.1325      0.1225      0.1126      0.1027      9.2819E-02
       8.2975E-02  7.3189E-02  6.3497E-02  5.3939E-02  4.4549E-02  3.5343E-02  2.6322E-02  1.7461E-02  8.7060E-03   0.000    
  32    1.000      0.9891      0.9783      0.9674      0.9564      0.9455      0.9345      0.9234      0.9122      0.9010    
       0.8896      0.8781      0.8665      0.8547      0.8427      0.8305      0.8182      0.8057      0.7930      0.7801    
       0.7671      0.7539      0.7405      0.7270      0.7134      0.6996      0.6857      0.6715      0.6573      0.6428    
       0.6281      0.6133      0.5982      0.5830      0.5677      0.5523      0.5370      0.5219      0.5068      0.4914    
       0.4754      0.4592      0.4505      0.4480      0.4455      0.4431      0.4408      0.4385      0.4362      0.4340    
       0.4317      0.4293      0.4270      0.4210      0.4118      0.4031      0.3950      0.3871      0.3788      0.3703    
       0.3616      0.3528      0.3440      0.3351      0.3262      0.3173      0.3084      0.2994      0.2904      0.2813    
       0.2721      0.2629      0.2536      0.2442      0.2347      0.2253      0.2157      0.2061      0.1965      0.1869    
       0.1772      0.1675      0.1578      0.1481      0.1384      0.1288      0.1191      0.1095      9.9954E-02  9.0410E-02
       8.0887E-02  7.1397E-02  6.1982E-02  5.2697E-02  4.3586E-02  3.4647E-02  2.5855E-02  1.7177E-02  8.5715E-03   0.000    
  33    1.000      0.9890      0.9779      0.9668      0.9557      0.9446      0.9333      0.9220      0.9107      0.8992    
       0.8876      0.8758      0.8639      0.8519      0.8397      0.8273      0.8148      0.8020      0.7892      0.7762    
       0.7630      0.7497      0.7363      0.7227      0.7090      0.6952      0.6812      0.6670      0.6526      0.6381    
       0.6233      0.6083      0.5930      0.5775      0.5618      0.5460      0.5303      0.5151      0.5003      0.4850    
       0.4675      0.4553      0.4527      0.4501      0.4474      0.4449      0.4425      0.4402      0.4380      0.4358    
       0.4336      0.4314      0.4253      0.4157      0.4065      0.3976      0.3891      0.3807      0.3722      0.3637    
       0.3550      0.3462      0.3375      0.3286      0.3198      0.3109      0.3019      0.2930      0.2840      0.2749    
       0.2658      0.2566      0.2474      0.2381      0.2288      0.2194      0.2100      0.2006      0.1912      0.1817    
       0.1722      0.1627      0.1533      0.1438      0.1344      0.1250      0.1157      0.1064      9.7182E-02  8.7981E-02
       7.8765E-02  6.9532E-02  6.0337E-02  5.1284E-02  4.2451E-02  3.3803E-02  2.5276E-02  1.6820E-02  8.4021E-03   0.000    
  34    1.000      0.9888      0.9776      0.9663      0.9550      0.9437      0.9323      0.9208      0.9092      0.8975    
       0.8856      0.8736      0.8615      0.8492      0.8368      0.8242      0.8115      0.7986      0.7855      0.7724    
       0.7591      0.7457      0.7322      0.7185      0.7048      0.6909      0.6768      0.6626      0.6482      0.6336    
       0.6187      0.6035      0.5880      0.5721      0.5559      0.5395      0.5232      0.5078      0.4944      0.4808    
       0.4662      0.4575      0.4550      0.4521      0.4492      0.4465      0.4440      0.4418      0.4397      0.4376    
       0.4355      0.4295      0.4196      0.4100      0.4007      0.3917      0.3829      0.3743      0.3657      0.3571    
       0.3485      0.3397      0.3310      0.3222      0.3133      0.3044      0.2955      0.2866      0.2776      0.2686    
       0.2595      0.2504      0.2413      0.2321      0.2229      0.2137      0.2044      0.1951      0.1858      0.1765    
       0.1672      0.1580      0.1487      0.1395      0.1303      0.1212      0.1122      0.1032      9.4390E-02  8.5567E-02
       7.6659E-02  6.7631E-02  5.8554E-02  4.9649E-02  4.1132E-02  3.2839E-02  2.4626E-02  1.6425E-02  8.2162E-03   0.000    
  35    1.000      0.9886      0.9773      0.9659      0.9544      0.9429      0.9313      0.9196      0.9078      0.8959    
       0.8838      0.8716      0.8593      0.8468      0.8341      0.8213      0.8083      0.7953      0.7820      0.7687    
       0.7553      0.7418      0.7282      0.7145      0.7007      0.6867      0.6727      0.6584      0.6440      0.6293    
       0.6144      0.5991      0.5834      0.5671      0.5503      0.5330      0.5152      0.4986      0.4887      0.4774    
       0.4670      0.4620      0.4579      0.4542      0.4508      0.4479      0.4454      0.4433      0.4414      0.4394    
       0.4335      0.4236      0.4137      0.4040      0.3947      0.3856      0.3767      0.3680      0.3593      0.3506    
       0.3420      0.3333      0.3245      0.3157      0.3069      0.2980      0.2891      0.2802      0.2712      0.2622    
       0.2533      0.2443      0.2352      0.2262      0.2171      0.2079      0.1988      0.1896      0.1805      0.1713    
       0.1622      0.1532      0.1441      0.1351      0.1262      0.1173      0.1086      9.9949E-02  9.1584E-02  8.3235E-02
       7.4675E-02  6.5777E-02  5.6599E-02  4.7628E-02  3.9589E-02  3.1796E-02  2.3963E-02  1.6038E-02  8.0378E-03   0.000    
  36    1.000      0.9885      0.9770      0.9655      0.9539      0.9422      0.9304      0.9185      0.9065      0.8944    
       0.8822      0.8697      0.8572      0.8444      0.8316      0.8185      0.8054      0.7921      0.7786      0.7651    
       0.7516      0.7379      0.7243      0.7105      0.6967      0.6828      0.6687      0.6544      0.6400      0.6254    
       0.6105      0.5952      0.5793      0.5626      0.5451      0.5269      0.5061      0.4905      0.4866      0.4802    
       0.4719      0.4655      0.4603      0.4558      0.4520      0.4488      0.4464      0.4445      0.4433      0.4380    
       0.4278      0.4175      0.4075      0.3978      0.3884      0.3792      0.3703      0.3615      0.3528      0.3442    
       0.3355      0.3269      0.3181      0.3094      0.3005      0.2916      0.2827      0.2738      0.2649      0.2560    
       0.2470      0.2381      0.2292      0.2202      0.2113      0.2022      0.1932      0.1841      0.1751      0.1661    
       0.1572      0.1483      0.1395      0.1307      0.1220      0.1134      0.1048      9.6410E-02  8.8760E-02  8.1116E-02
       7.3027E-02  6.4201E-02  5.4438E-02  4.4676E-02  3.7799E-02  3.0791E-02  2.3395E-02  1.5724E-02  7.8973E-03   0.000    
  37    1.000      0.9884      0.9768      0.9651      0.9534      0.9416      0.9296      0.9176      0.9054      0.8931    
       0.8806      0.8680      0.8552      0.8423      0.8292      0.8159      0.8025      0.7890      0.7753      0.7617    
       0.7479      0.7342      0.7204      0.7067      0.6928      0.6789      0.6649      0.6506      0.6362      0.6216    
       0.6069      0.5919      0.5760      0.5589      0.5407      0.5232      0.5073      0.4939      0.4890      0.4823    
       0.4748      0.4680      0.4620      0.4568      0.4525      0.4491      0.4467      0.4450      0.4440      0.4348    
       0.4222      0.4112      0.4010      0.3913      0.3818      0.3726      0.3637      0.3550      0.3463      0.3377    
       0.3291      0.3205      0.3118      0.3030      0.2942      0.2853      0.2764      0.2675      0.2585      0.2496    
       0.2408      0.2320      0.2232      0.2144      0.2055      0.1965      0.1876      0.1786      0.1697      0.1609    
       0.1521      0.1434      0.1348      0.1262      0.1176      0.1095      0.1009      9.2105E-02  8.5932E-02  7.9440E-02
       7.2116E-02  6.3564E-02  5.2274E-02  4.1729E-02  3.6962E-02  3.0481E-02  2.3246E-02  1.5646E-02  7.8634E-03   0.000    
  38    1.000      0.9883      0.9766      0.9648      0.9530      0.9410      0.9290      0.9168      0.9045      0.8920    
       0.8793      0.8664      0.8534      0.8403      0.8269      0.8134      0.7997      0.7860      0.7721      0.7582    
       0.7443      0.7304      0.7166      0.7028      0.6891      0.6752      0.6612      0.6470      0.6326      0.6180    
       0.6036      0.5895      0.5741      0.5561      0.5356      0.5206      0.5134      0.5019      0.4933      0.4851    
       0.4770      0.4695      0.4628      0.4570      0.4521      0.4485      0.4463      0.4428      0.4369      0.4260    
       0.4149      0.4043      0.3941      0.3844      0.3749      0.3658      0.3570      0.3483      0.3398      0.3313    
       0.3228      0.3142      0.3055      0.2968      0.2879      0.2790      0.2700      0.2611      0.2522      0.2433    
       0.2345      0.2259      0.2172      0.2085      0.1998      0.1909      0.1819      0.1730      0.1642      0.1556    
       0.1470      0.1383      0.1303      0.1217      0.1127      0.1060      9.7225E-02  8.8604E-02  8.4666E-02  7.9014E-02
       7.2276E-02  6.4624E-02  5.6024E-02  4.6230E-02  3.8660E-02  3.1227E-02  2.3610E-02  1.5827E-02  7.9362E-03   0.000    
  39    1.000      0.9882      0.9765      0.9646      0.9527      0.9406      0.9285      0.9161      0.9036      0.8910    
       0.8781      0.8651      0.8518      0.8384      0.8248      0.8110      0.7971      0.7831      0.7689      0.7547    
       0.7406      0.7266      0.7127      0.6990      0.6854      0.6717      0.6578      0.6435      0.6290      0.6144    
       0.5998      0.5884      0.5748      0.5558      0.5376      0.5275      0.5177      0.5071      0.4972      0.4878    
       0.4787      0.4703      0.4628      0.4561      0.4506      0.4463      0.4437      0.4375      0.4278      0.4174    
       0.4070      0.3968      0.3869      0.3772      0.3678      0.3587      0.3500      0.3415      0.3332      0.3249    
       0.3165      0.3079      0.2993      0.2906      0.2817      0.2727      0.2637      0.2547      0.2457      0.2369    
       0.2282      0.2197      0.2113      0.2028      0.1942      0.1853      0.1763      0.1673      0.1585      0.1503    
       0.1418      0.1328      0.1262      0.1176      0.1091      0.1053      9.9558E-02  9.2302E-02  8.6354E-02  8.0091E-02
       7.3194E-02  6.5593E-02  5.7294E-02  4.8504E-02  4.0221E-02  3.2159E-02  2.4141E-02  1.6109E-02  8.0597E-03   0.000    
  40    1.000      0.9882      0.9764      0.9645      0.9525      0.9404      0.9281      0.9156      0.9030      0.8902    
       0.8771      0.8639      0.8504      0.8367      0.8229      0.8088      0.7946      0.7802      0.7658      0.7513    
       0.7368      0.7225      0.7086      0.6951      0.6819      0.6685      0.6546      0.6404      0.6256      0.6108    
       0.5964      0.5889      0.5779      0.5642      0.5473      0.5343      0.5227      0.5115      0.5007      0.4900    
       0.4798      0.4703      0.4617      0.4542      0.4478      0.4424      0.4387      0.4296      0.4193      0.4089    
       0.3990      0.3891      0.3793      0.3697      0.3603      0.3513      0.3427      0.3346      0.3267      0.3186    
       0.3103      0.3018      0.2932      0.2845      0.2756      0.2665      0.2574      0.2482      0.2392      0.2303    
       0.2216      0.2134      0.2054      0.1973      0.1888      0.1798      0.1705      0.1614      0.1521      0.1455    
       0.1371      0.1287      0.1251      0.1197      0.1128      0.1071      0.1011      9.4693E-02  8.8356E-02  8.1804E-02
       7.4814E-02  6.7260E-02  5.9054E-02  5.0273E-02  4.1562E-02  3.3046E-02  2.4682E-02  1.6412E-02  8.1942E-03   0.000    
  41    1.000      0.9882      0.9764      0.9645      0.9525      0.9403      0.9279      0.9153      0.9026      0.8896    
       0.8763      0.8629      0.8492      0.8353      0.8211      0.8068      0.7923      0.7775      0.7627      0.7477    
       0.7328      0.7182      0.7041      0.6908      0.6786      0.6656      0.6519      0.6378      0.6238      0.6159    
       0.6034      0.5926      0.5807      0.5675      0.5532      0.5397      0.5272      0.5155      0.5040      0.4919    
       0.4802      0.4692      0.4597      0.4513      0.4438      0.4369      0.4301      0.4218      0.4109      0.3998    
       0.3909      0.3812      0.3716      0.3620      0.3525      0.3434      0.3349      0.3277      0.3203      0.3124    
       0.3042      0.2959      0.2873      0.2786      0.2696      0.2604      0.2510      0.2417      0.2325      0.2234    
       0.2146      0.2069      0.1996      0.1921      0.1840      0.1747      0.1646      0.1558      0.1475      0.1439    
       0.1387      0.1322      0.1268      0.1212      0.1151      0.1092      0.1032      9.6968E-02  9.0572E-02  8.3955E-02
       7.6998E-02  6.9580E-02  6.1387E-02  5.1972E-02  4.2706E-02  3.3781E-02  2.5131E-02  1.6664E-02  8.3051E-03   0.000    
  42    1.000      0.9883      0.9765      0.9646      0.9526      0.9403      0.9279      0.9152      0.9023      0.8892    
       0.8758      0.8621      0.8482      0.8340      0.8196      0.8050      0.7901      0.7750      0.7597      0.7442    
       0.7286      0.7133      0.6987      0.6856      0.6761      0.6635      0.6507      0.6434      0.6313      0.6206    
       0.6089      0.5971      0.5849      0.5718      0.5582      0.5440      0.5311      0.5193      0.5080      0.4933    
       0.4800      0.4664      0.4567      0.4475      0.4392      0.4314      0.4231      0.4135      0.4015      0.3941    
       0.3838      0.3731      0.3641      0.3540      0.3444      0.3350      0.3257      0.3209      0.3143      0.3065    
       0.2984      0.2901      0.2816      0.2729      0.2639      0.2545      0.2447      0.2348      0.2258      0.2163    
       0.2063      0.2001      0.1941      0.1876      0.1802      0.1704      0.1610      0.1569      0.1507      0.1456    
       0.1402      0.1344      0.1288      0.1231      0.1174      0.1115      0.1056      9.9379E-02  9.3011E-02  8.6445E-02
       7.9644E-02  7.2674E-02  6.4944E-02  5.3520E-02  4.3508E-02  3.4239E-02  2.5398E-02  1.6809E-02  8.3627E-03   0.000    
  43    1.000      0.9884      0.9767      0.9649      0.9528      0.9406      0.9281      0.9154      0.9024      0.8891    
       0.8755      0.8616      0.8474      0.8330      0.8183      0.8033      0.7881      0.7726      0.7568      0.7406    
       0.7242      0.7078      0.6918      0.6811      0.6765      0.6688      0.6578      0.6482      0.6376      0.6264    
       0.6143      0.6022      0.5899      0.5768      0.5637      0.5472      0.5337      0.5228      0.5152      0.4986    
       0.4765      0.4600      0.4531      0.4427      0.4343      0.4262      0.4175      0.4076      0.3968      0.3867    
       0.3752      0.3682      0.3575      0.3456      0.3360      0.3264      0.3189      0.3161      0.3093      0.3011    
       0.2928      0.2845      0.2761      0.2675      0.2586      0.2490      0.2384      0.2272      0.2194      0.2097    
       0.2003      0.1966      0.1916      0.1858      0.1795      0.1726      0.1649      0.1589      0.1530      0.1475    
       0.1420      0.1364      0.1308      0.1253      0.1196      0.1139      0.1081      0.1020      9.5646E-02  8.9172E-02
       8.2457E-02  7.6528E-02  7.2195E-02  6.0356E-02  4.6538E-02  3.5800E-02  2.6199E-02  1.6930E-02  7.0374E-03   0.000    
  44    1.000      0.9886      0.9770      0.9653      0.9533      0.9411      0.9286      0.9158      0.9027      0.8892    
       0.8755      0.8614      0.8470      0.8323      0.8173      0.8020      0.7864      0.7706      0.7543      0.7374    
       0.7196      0.7019      0.6908      0.6854      0.6795      0.6722      0.6633      0.6542      0.6443      0.6330    
       0.6199      0.6074      0.5957      0.5818      0.5726      0.5564      0.5388      0.5256      0.5139      0.4982    
       0.4804      0.4633      0.4488      0.4359      0.4289      0.4217      0.4130      0.4027      0.3912      0.3808    
       0.3707      0.3612      0.3496      0.3401      0.3319      0.3247      0.3187      0.3142      0.3058      0.2957    
       0.2871      0.2789      0.2707      0.2624      0.2539      0.2446      0.2328      0.2217      0.2172      0.2110    
       0.2036      0.1979      0.1922      0.1863      0.1801      0.1736      0.1670      0.1609      0.1550      0.1494    
       0.1438      0.1383      0.1329      0.1274      0.1220      0.1165      0.1108      0.1048      9.8416E-02  9.2141E-02
       8.4484E-02  7.8787E-02  7.5346E-02  6.4263E-02  4.9456E-02  3.7747E-02  2.7448E-02  1.7794E-02  8.4560E-03   0.000    
  45    1.000      0.9888      0.9775      0.9660      0.9541      0.9419      0.9294      0.9165      0.9033      0.8897    
       0.8758      0.8615      0.8468      0.8318      0.8165      0.8009      0.7851      0.7690      0.7525      0.7350    
       0.7151      0.7011      0.6960      0.6903      0.6841      0.6770      0.6692      0.6610      0.6522      0.6417    
       0.6246      0.6120      0.6038      0.5901      0.5750      0.5600      0.5444      0.5298      0.5155      0.5000    
       0.4835      0.4672      0.4515      0.4351      0.4239      0.4186      0.4102      0.3991      0.3845      0.3745    
       0.3655      0.3565      0.3472      0.3386      0.3308      0.3236      0.3168      0.3099      0.3007      0.2923    
       0.2841      0.2761      0.2681      0.2600      0.2519      0.2436      0.2351      0.2258      0.2189      0.2122    
       0.2054      0.1992      0.1931      0.1870      0.1809      0.1747      0.1685      0.1625      0.1568      0.1511    
       0.1456      0.1402      0.1349      0.1296      0.1244      0.1192      0.1139      0.1081      0.1010      9.6493E-02
       8.7855E-02  7.8929E-02  7.1839E-02  6.1030E-02  4.9275E-02  3.8284E-02  2.8051E-02  1.8341E-02  8.9930E-03   0.000    
  46    1.000      0.9892      0.9783      0.9669      0.9552      0.9431      0.9305      0.9176      0.9043      0.8906    
       0.8765      0.8619      0.8470      0.8317      0.8160      0.8000      0.7839      0.7678      0.7517      0.7350    
       0.7181      0.7060      0.7016      0.6958      0.6894      0.6826      0.6755      0.6685      0.6620      0.6568    
       0.6396      0.6210      0.6079      0.5946      0.5797      0.5644      0.5489      0.5336      0.5183      0.5026    
       0.4866      0.4705      0.4547      0.4394      0.4261      0.4161      0.4045      0.3881      0.3732      0.3673    
       0.3601      0.3522      0.3442      0.3364      0.3291      0.3220      0.3151      0.3079      0.2999      0.2919    
       0.2839      0.2760      0.2680      0.2601      0.2520      0.2439      0.2358      0.2277      0.2203      0.2134    
       0.2067      0.2002      0.1940      0.1879      0.1818      0.1758      0.1698      0.1640      0.1584      0.1528    
       0.1473      0.1420      0.1368      0.1317      0.1268      0.1221      0.1175      0.1127      0.1044      9.5511E-02
       8.6354E-02  7.7374E-02  6.8614E-02  5.8746E-02  4.8333E-02  3.8060E-02  2.8131E-02  1.8526E-02  9.1747E-03   0.000    
  47    1.000      0.9899      0.9794      0.9683      0.9567      0.9446      0.9321      0.9191      0.9057      0.8919    
       0.8776      0.8628      0.8476      0.8319      0.8158      0.7993      0.7828      0.7668      0.7514      0.7352    
       0.7231      0.7151      0.7085      0.7019      0.6952      0.6883      0.6817      0.6755      0.6703      0.6670    
       0.6538      0.6334      0.6165      0.6007      0.5849      0.5690      0.5532      0.5374      0.5216      0.5057    
       0.4896      0.4734      0.4575      0.4419      0.4270      0.4130      0.3978      0.3797      0.3675      0.3616    
       0.3553      0.3481      0.3409      0.3339      0.3271      0.3203      0.3136      0.3066      0.2992      0.2915    
       0.2838      0.2759      0.2680      0.2601      0.2522      0.2443      0.2364      0.2287      0.2214      0.2144    
       0.2076      0.2011      0.1948      0.1887      0.1827      0.1768      0.1710      0.1654      0.1599      0.1543    
       0.1489      0.1437      0.1387      0.1336      0.1289      0.1250      0.1211      0.1136      0.1033      9.3863E-02
       8.4676E-02  7.5599E-02  6.6498E-02  5.7007E-02  4.7251E-02  3.7495E-02  2.7885E-02  1.8455E-02  9.1797E-03   0.000    
  48    1.000      0.9908      0.9810      0.9703      0.9587      0.9466      0.9340      0.9211      0.9076      0.8936    
       0.8791      0.8641      0.8486      0.8325      0.8159      0.7986      0.7810      0.7652      0.7518      0.7393    
       0.7310      0.7229      0.7154      0.7081      0.7010      0.6940      0.6874      0.6815      0.6769      0.6741    
       0.6625      0.6422      0.6240      0.6068      0.5900      0.5736      0.5573      0.5412      0.5251      0.5089    
       0.4926      0.4763      0.4598      0.4435      0.4272      0.4109      0.3942      0.3773      0.3635      0.3561    
       0.3516      0.3438      0.3373      0.3312      0.3250      0.3187      0.3123      0.3057      0.2987      0.2913    
       0.2836      0.2759      0.2681      0.2602      0.2524      0.2446      0.2369      0.2294      0.2221      0.2151    
       0.2083      0.2018      0.1955      0.1893      0.1834      0.1776      0.1721      0.1667      0.1613      0.1557    
       0.1503      0.1453      0.1406      0.1349      0.1305      0.1276      0.1208      0.1109      0.1013      9.1987E-02
       8.2888E-02  7.3849E-02  6.4771E-02  5.5534E-02  4.6170E-02  3.6784E-02  2.7460E-02  1.8230E-02  9.0884E-03   0.000    
  49    1.000      0.9923      0.9837      0.9730      0.9612      0.9489      0.9364      0.9235      0.9100      0.8959    
       0.8812      0.8660      0.8502      0.8338      0.8166      0.7983      0.7775      0.7631      0.7577      0.7475    
       0.7385      0.7301      0.7221      0.7143      0.7066      0.6993      0.6924      0.6863      0.6816      0.6788    
       0.6682      0.6490      0.6304      0.6124      0.5949      0.5780      0.5614      0.5450      0.5287      0.5123    
       0.4958      0.4791      0.4622      0.4450      0.4274      0.4093      0.3906      0.3720      0.3567      0.3549    
       0.3361      0.3383      0.3334      0.3285      0.3230      0.3171      0.3112      0.3052      0.2986      0.2912    
       0.2836      0.2759      0.2681      0.2603      0.2526      0.2449      0.2373      0.2298      0.2226      0.2156    
       0.2088      0.2023      0.1959      0.1898      0.1839      0.1783      0.1730      0.1681      0.1631      0.1567    
       0.1512      0.1467      0.1436      0.1369      0.1300      0.1245      0.1166      0.1078      9.8880E-02  8.9941E-02
       8.1037E-02  7.2140E-02  6.3204E-02  5.4189E-02  4.5110E-02  3.6011E-02  2.6939E-02  1.7917E-02  8.9436E-03   0.000    
  50    1.000      0.9947      0.9886      0.9770      0.9641      0.9516      0.9392      0.9265      0.9130      0.8987    
       0.8838      0.8684      0.8524      0.8358      0.8185      0.8003      0.7819      0.7682      0.7626      0.7543    
       0.7456      0.7370      0.7285      0.7202      0.7120      0.7040      0.6965      0.6898      0.6843      0.6808    
       0.6724      0.6550      0.6362      0.6174      0.5993      0.5820      0.5652      0.5487      0.5323      0.5158    
       0.4991      0.4822      0.4648      0.4469      0.4282      0.4083      0.3869      0.3634      0.3379      0.3129    
       0.2640      0.3072      0.3294      0.3264      0.3216      0.3154      0.3103      0.3052      0.2994      0.2915    
       0.2837      0.2759      0.2681      0.2604      0.2526      0.2450      0.2374      0.2300      0.2228      0.2158    
       0.2091      0.2025      0.1962      0.1901      0.1842      0.1786      0.1733      0.1697      0.1663      0.1594    
       0.1520      0.1464      0.1414      0.1345      0.1276      0.1209      0.1132      0.1050      9.6483E-02  8.7858E-02
       7.9182E-02  7.0469E-02  6.1714E-02  5.2910E-02  4.4068E-02  3.5213E-02  2.6370E-02  1.7555E-02  8.7686E-03   0.000    
  51    1.000      0.9963      0.9937      0.9822      0.9667      0.9540      0.9423      0.9304      0.9167      0.9021    
       0.8870      0.8714      0.8551      0.8385      0.8211      0.8027      0.7884      0.7787      0.7703      0.7615    
       0.7526      0.7437      0.7348      0.7260      0.7171      0.7084      0.6999      0.6921      0.6851      0.6795    
       0.6748      0.6626      0.6420      0.6218      0.6030      0.5855      0.5687      0.5523      0.5359      0.5195    
       0.5028      0.4856      0.4680      0.4495      0.4300      0.4089      0.3852      0.3569      0.3186      0.2534    
       9.9631E-02  0.2449      0.3035      0.3167      0.3165      0.3125      0.3095      0.3057      0.3025      0.2948    
       0.2854      0.2773      0.2695      0.2617      0.2541      0.2464      0.2389      0.2315      0.2242      0.2172    
       0.2103      0.2037      0.1972      0.1909      0.1846      0.1776      0.1722      0.1709      0.1661      0.1586    
       0.1515      0.1452      0.1389      0.1322      0.1252      0.1180      0.1104      0.1024      9.4204E-02  8.5826E-02
       7.7363E-02  6.8841E-02  6.0274E-02  5.1669E-02  4.3039E-02  3.4401E-02  2.5773E-02  1.7164E-02  8.5757E-03   0.000    
  52    1.000      0.9953      0.9915      0.9801      0.9664      0.9555      0.9457      0.9360      0.9212      0.9059    
       0.8908      0.8751      0.8583      0.8419      0.8249      0.8088      0.7980      0.7878      0.7782      0.7689    
       0.7596      0.7504      0.7411      0.7317      0.7222      0.7124      0.7027      0.6933      0.6847      0.6771    
       0.6705      0.6645      0.6475      0.6247      0.6056      0.5881      0.5718      0.5558      0.5397      0.5234    
       0.5068      0.4897      0.4719      0.4533      0.4335      0.4121      0.3882      0.3604      0.3261      0.2827    
       0.2363      0.2692      0.2978      0.3107      0.3140      0.3128      0.3101      0.3063      0.3019      0.2953    
       0.2876      0.2798      0.2721      0.2644      0.2568      0.2491      0.2416      0.2341      0.2268      0.2197    
       0.2126      0.2058      0.1991      0.1925      0.1860      0.1795      0.1736      0.1696      0.1640      0.1573    
       0.1505      0.1437      0.1370      0.1301      0.1229      0.1156      0.1080      0.1001      9.2072E-02  8.3882E-02
       7.5601E-02  6.7258E-02  5.8871E-02  5.0453E-02  4.2018E-02  3.3581E-02  2.5156E-02  1.6753E-02  8.3700E-03   0.000    
  53    1.000      0.9932      0.9857      0.9747      0.9648      0.9556      0.9474      0.9414      0.9264      0.9095    
       0.8951      0.8800      0.8610      0.8439      0.8344      0.8194      0.8072      0.7962      0.7860      0.7762    
       0.7666      0.7570      0.7475      0.7376      0.7274      0.7165      0.7051      0.6939      0.6833      0.6737    
       0.6654      0.6590      0.6422      0.6238      0.6064      0.5898      0.5746      0.5593      0.5437      0.5277    
       0.5113      0.4943      0.4767      0.4582      0.4387      0.4178      0.3952      0.3703      0.3429      0.3148    
       0.2935      0.2978      0.3078      0.3141      0.3161      0.3151      0.3122      0.3081      0.3031      0.2968    
       0.2897      0.2823      0.2747      0.2671      0.2594      0.2518      0.2442      0.2367      0.2293      0.2220    
       0.2148      0.2078      0.2008      0.1940      0.1873      0.1808      0.1746      0.1689      0.1628      0.1561    
       0.1492      0.1423      0.1353      0.1282      0.1209      0.1134      0.1058      9.8014E-02  9.0075E-02  8.2028E-02
       7.3902E-02  6.5720E-02  5.7500E-02  4.9254E-02  4.0998E-02  3.2748E-02  2.4519E-02  1.6321E-02  8.1514E-03   0.000    
  54    1.000      0.9919      0.9833      0.9736      0.9640      0.9546      0.9453      0.9357      0.9227      0.9102    
       0.8975      0.8843      0.8699      0.8532      0.8401      0.8270      0.8150      0.8039      0.7934      0.7833    
       0.7735      0.7638      0.7540      0.7440      0.7333      0.7211      0.7073      0.6938      0.6807      0.6693    
       0.6584      0.6473      0.6322      0.6228      0.6065      0.5899      0.5777      0.5630      0.5480      0.5325    
       0.5165      0.4997      0.4823      0.4641      0.4451      0.4253      0.4044      0.3826      0.3605      0.3401    
       0.3253      0.3208      0.3213      0.3220      0.3214      0.3191      0.3155      0.3109      0.3055      0.2992    
       0.2923      0.2850      0.2774      0.2698      0.2621      0.2544      0.2467      0.2391      0.2316      0.2242    
       0.2168      0.2096      0.2025      0.1955      0.1886      0.1818      0.1752      0.1687      0.1620      0.1552    
       0.1481      0.1410      0.1337      0.1264      0.1190      0.1115      0.1038      9.6045E-02  8.8188E-02  8.0253E-02
       7.2259E-02  6.4221E-02  5.6153E-02  4.8066E-02  3.9973E-02  3.1894E-02  2.3852E-02  1.5859E-02  7.9148E-03   0.000    
  55    1.000      0.9911      0.9820      0.9725      0.9629      0.9534      0.9437      0.9335      0.9220      0.9103    
       0.8982      0.8856      0.8724      0.8587      0.8459      0.8336      0.8220      0.8109      0.8003      0.7901    
       0.7802      0.7705      0.7609      0.7512      0.7405      0.7274      0.7094      0.6932      0.6765      0.6641    
       0.6518      0.6395      0.6263      0.6137      0.5987      0.5876      0.5805      0.5671      0.5530      0.5377    
       0.5223      0.5058      0.4885      0.4708      0.4525      0.4337      0.4145      0.3952      0.3765      0.3596    
       0.3467      0.3389      0.3345      0.3314      0.3282      0.3244      0.3198      0.3146      0.3087      0.3022    
       0.2952      0.2878      0.2803      0.2725      0.2648      0.2570      0.2492      0.2415      0.2338      0.2262    
       0.2188      0.2114      0.2040      0.1968      0.1896      0.1826      0.1756      0.1686      0.1615      0.1544    
       0.1471      0.1397      0.1323      0.1248      0.1172      0.1096      0.1019      9.4171E-02  8.6379E-02  7.8538E-02
       7.0659E-02  6.2752E-02  5.4825E-02  4.6883E-02  3.8934E-02  3.1004E-02  2.3134E-02  1.5350E-02  7.6484E-03   0.000    
  56    1.000      0.9906      0.9811      0.9715      0.9619      0.9523      0.9425      0.9324      0.9218      0.9107    
       0.8993      0.8876      0.8755      0.8632      0.8512      0.8396      0.8284      0.8175      0.8069      0.7966    
       0.7867      0.7772      0.7680      0.7592      0.7501      0.7386      0.7178      0.6895      0.6680      0.6590    
       0.6450      0.6329      0.6197      0.6071      0.5946      0.5836      0.5738      0.5628      0.5561      0.5431    
       0.5291      0.5128      0.4953      0.4779      0.4604      0.4426      0.4248      0.4072      0.3905      0.3754    
       0.3629      0.3535      0.3465      0.3408      0.3356      0.3304      0.3248      0.3189      0.3125      0.3056    
       0.2984      0.2909      0.2832      0.2754      0.2674      0.2595      0.2516      0.2438      0.2360      0.2282    
       0.2206      0.2130      0.2055      0.1980      0.1906      0.1833      0.1759      0.1686      0.1612      0.1537    
       0.1461      0.1385      0.1309      0.1232      0.1155      0.1078      0.1001      9.2352E-02  8.4618E-02  7.6862E-02
       6.9087E-02  6.1303E-02  5.3514E-02  4.5706E-02  3.7874E-02  3.0056E-02  2.2329E-02  1.4759E-02  7.3287E-03   0.000    
  57    1.000      0.9901      0.9803      0.9705      0.9608      0.9513      0.9417      0.9320      0.9219      0.9115    
       0.9008      0.8898      0.8787      0.8674      0.8562      0.8452      0.8344      0.8237      0.8132      0.8028    
       0.7929      0.7835      0.7748      0.7674      0.7622      0.7460      0.7214      0.6962      0.6728      0.6536    
       0.6363      0.6272      0.6126      0.6004      0.5891      0.5782      0.5682      0.5585      0.5497      0.5398    
       0.5339      0.5207      0.5021      0.4853      0.4684      0.4516      0.4348      0.4184      0.4028      0.3885    
       0.3761      0.3657      0.3571      0.3498      0.3431      0.3367      0.3303      0.3236      0.3167      0.3095    
       0.3020      0.2942      0.2863      0.2782      0.2701      0.2620      0.2540      0.2460      0.2380      0.2302    
       0.2224      0.2146      0.2069      0.1992      0.1916      0.1839      0.1763      0.1686      0.1609      0.1531    
       0.1453      0.1374      0.1295      0.1216      0.1138      0.1060      9.8244E-02  9.0548E-02  8.2878E-02  7.5205E-02
       6.7523E-02  5.9858E-02  5.2222E-02  4.4552E-02  3.6802E-02  2.9015E-02  2.1366E-02  1.4030E-02  6.9074E-03   0.000    
  58    1.000      0.9897      0.9794      0.9693      0.9596      0.9504      0.9412      0.9319      0.9223      0.9126    
[...]
       0.1438      0.1371      0.1305      0.1238      0.1169      0.1100      0.1032      9.6546E-02  8.9904E-02  8.3103E-02
       7.5486E-02  6.5445E-02  5.7003E-02  5.0010E-02  4.5116E-02  3.5353E-02  2.4450E-02  1.5740E-02  7.7456E-03   0.000    
  87    1.000      0.9810      0.9746      0.9654      0.9579      0.9502      0.9423      0.9350      0.9280      0.9211    
       0.9145      0.9081      0.9018      0.8955      0.8893      0.8833      0.8773      0.8713      0.8652      0.8591    
       0.8530      0.8480      0.8449      0.8331      0.8155      0.8012      0.7877      0.7744      0.7613      0.7485    
       0.7353      0.7218      0.7080      0.6941      0.6801      0.6660      0.6519      0.6377      0.6236      0.6094    
       0.5952      0.5810      0.5668      0.5526      0.5384      0.5243      0.5103      0.4963      0.4824      0.4686    
       0.4549      0.4412      0.4277      0.4142      0.4008      0.3874      0.3742      0.3610      0.3478      0.3348    
       0.3218      0.3088      0.2959      0.2831      0.2707      0.2590      0.2480      0.2375      0.2269      0.2153    
       0.2065      0.2015      0.1964      0.1911      0.1854      0.1792      0.1728      0.1662      0.1596      0.1530    
       0.1463      0.1395      0.1327      0.1258      0.1184      0.1112      0.1044      9.7992E-02  9.2038E-02  8.6537E-02
       8.0936E-02  7.1019E-02  6.0106E-02  5.1900E-02  4.4772E-02  3.5793E-02  2.6209E-02  1.7146E-02  8.4803E-03   0.000    
  88    1.000      0.9841      0.9716      0.9607      0.9557      0.9486      0.9400      0.9332      0.9265      0.9196    
       0.9131      0.9068      0.9005      0.8941      0.8877      0.8813      0.8751      0.8687      0.8623      0.8559    
       0.8496      0.8439      0.8397      0.8271      0.8131      0.8028      0.7905      0.7775      0.7649      0.7530    
       0.7401      0.7264      0.7125      0.6984      0.6843      0.6701      0.6559      0.6416      0.6273      0.6130    
       0.5987      0.5843      0.5700      0.5556      0.5413      0.5270      0.5127      0.4986      0.4845      0.4705    
       0.4566      0.4427      0.4290      0.4153      0.4017      0.3881      0.3746      0.3612      0.3478      0.3345    
       0.3212      0.3078      0.2944      0.2810      0.2679      0.2558      0.2454      0.2355      0.2261      0.2171    
       0.2114      0.2057      0.1999      0.1939      0.1876      0.1812      0.1747      0.1683      0.1620      0.1556    
       0.1489      0.1417      0.1349      0.1282      0.1196      0.1120      0.1052      9.8982E-02  9.3718E-02  9.0072E-02
       8.3258E-02  7.3330E-02  6.3544E-02  5.4565E-02  4.5944E-02  3.6835E-02  2.7446E-02  1.8157E-02  9.0296E-03   0.000    
  89    1.000      0.9868      0.9747      0.9636      0.9555      0.9453      0.9358      0.9314      0.9251      0.9176    
       0.9116      0.9056      0.8994      0.8927      0.8859      0.8794      0.8730      0.8663      0.8595      0.8526    
       0.8456      0.8384      0.8304      0.8186      0.8100      0.8046      0.7941      0.7801      0.7680      0.7585    
       0.7455      0.7313      0.7171      0.7028      0.6885      0.6742      0.6599      0.6455      0.6312      0.6167    
       0.6023      0.5878      0.5732      0.5586      0.5441      0.5296      0.5151      0.5008      0.4865      0.4723    
       0.4582      0.4442      0.4302      0.4163      0.4025      0.3887      0.3750      0.3613      0.3477      0.3342    
       0.3207      0.3070      0.2930      0.2786      0.2640      0.2509      0.2421      0.2343      0.2301      0.2226    
       0.2162      0.2099      0.2035      0.1969      0.1900      0.1832      0.1767      0.1704      0.1644      0.1584    
       0.1520      0.1436      0.1371      0.1327      0.1254      0.1166      0.1094      0.1028      9.6806E-02  9.1288E-02
       8.4294E-02  7.5498E-02  6.6172E-02  5.6874E-02  4.7603E-02  3.8159E-02  2.8582E-02  1.9005E-02  9.4815E-03   0.000    
  90    1.000      0.9882      0.9770      0.9665      0.9570      0.9475      0.9381      0.9311      0.9222      0.9139    
       0.9101      0.9048      0.8986      0.8916      0.8837      0.8774      0.8710      0.8641      0.8566      0.8493    
       0.8419      0.8338      0.8249      0.8153      0.8067      0.7995      0.7925      0.7807      0.7684      0.7630    
       0.7523      0.7363      0.7217      0.7073      0.6928      0.6784      0.6639      0.6495      0.6350      0.6205    
       0.6059      0.5912      0.5765      0.5617      0.5469      0.5321      0.5174      0.5029      0.4884      0.4740    
       0.4597      0.4456      0.4314      0.4173      0.4033      0.3892      0.3753      0.3614      0.3476      0.3339    
       0.3202      0.3064      0.2920      0.2765      0.2585      0.2464      0.2437      0.2384      0.2333      0.2272    
       0.2209      0.2143      0.2073      0.2001      0.1923      0.1850      0.1783      0.1722      0.1667      0.1618    
       0.1569      0.1502      0.1427      0.1371      0.1316      0.1243      0.1169      0.1097      0.1025      9.5174E-02
       8.7129E-02  7.8197E-02  6.8772E-02  5.9154E-02  4.9438E-02  3.9616E-02  2.9717E-02  1.9798E-02  9.8916E-03   0.000    
  91    1.000      0.9891      0.9785      0.9683      0.9587      0.9494      0.9405      0.9323      0.9239      0.9159    
       0.9101      0.9040      0.8970      0.8880      0.8797      0.8756      0.8696      0.8624      0.8535      0.8464    
       0.8387      0.8299      0.8202      0.8108      0.8022      0.7941      0.7857      0.7754      0.7679      0.7632    
       0.7540      0.7398      0.7261      0.7118      0.6971      0.6825      0.6680      0.6535      0.6389      0.6243    
       0.6096      0.5947      0.5797      0.5647      0.5496      0.5346      0.5197      0.5049      0.4902      0.4756    
       0.4612      0.4469      0.4326      0.4183      0.4040      0.3897      0.3755      0.3614      0.3474      0.3336    
       0.3200      0.3063      0.2921      0.2767      0.2591      0.2487      0.2464      0.2423      0.2375      0.2319    
       0.2259      0.2191      0.2114      0.2038      0.1942      0.1862      0.1793      0.1734      0.1685      0.1652    
       0.1620      0.1576      0.1518      0.1458      0.1394      0.1322      0.1244      0.1165      0.1083      9.9799E-02
       9.0852E-02  8.1390E-02  7.1563E-02  6.1530E-02  5.1380E-02  4.1150E-02  3.0873E-02  2.0579E-02  1.0287E-02   0.000    
  92    1.000      0.9897      0.9795      0.9696      0.9601      0.9509      0.9421      0.9336      0.9254      0.9176    
       0.9105      0.9035      0.8960      0.8880      0.8804      0.8743      0.8672      0.8577      0.8488      0.8439    
       0.8365      0.8271      0.8150      0.8056      0.7971      0.7890      0.7808      0.7724      0.7650      0.7588    
       0.7530      0.7426      0.7311      0.7166      0.7013      0.6866      0.6721      0.6575      0.6428      0.6282    
       0.6134      0.5984      0.5831      0.5677      0.5523      0.5370      0.5218      0.5067      0.4918      0.4771    
       0.4626      0.4482      0.4338      0.4193      0.4047      0.3901      0.3756      0.3613      0.3471      0.3332    
       0.3198      0.3068      0.2935      0.2790      0.2629      0.2531      0.2508      0.2470      0.2424      0.2372    
       0.2315      0.2250      0.2154      0.2096      0.2017      0.1927      0.1858      0.1801      0.1754      0.1720    
       0.1703      0.1663      0.1610      0.1549      0.1481      0.1405      0.1322      0.1235      0.1144      0.1049    
       9.5089E-02  8.4948E-02  7.4561E-02  6.4023E-02  5.3400E-02  4.2732E-02  3.2046E-02  2.1357E-02  1.0676E-02   0.000    
  93    1.000      0.9901      0.9802      0.9706      0.9612      0.9521      0.9433      0.9347      0.9265      0.9185    
       0.9108      0.9033      0.8956      0.8877      0.8800      0.8727      0.8649      0.8564      0.8483      0.8412    
       0.8323      0.8195      0.8073      0.7994      0.7917      0.7841      0.7762      0.7684      0.7610      0.7542    
       0.7473      0.7395      0.7352      0.7221      0.7049      0.6906      0.6763      0.6615      0.6467      0.6322    
       0.6175      0.6023      0.5866      0.5707      0.5549      0.5393      0.5238      0.5085      0.4933      0.4784    
       0.4638      0.4494      0.4350      0.4203      0.4054      0.3904      0.3756      0.3610      0.3465      0.3323    
       0.3191      0.3076      0.2959      0.2831      0.2698      0.2597      0.2567      0.2526      0.2479      0.2430    
       0.2380      0.2338      0.2246      0.2160      0.2102      0.2036      0.1976      0.1923      0.1879      0.1841    
       0.1807      0.1764      0.1711      0.1648      0.1576      0.1494      0.1404      0.1308      0.1208      0.1104    
       9.9658E-02  8.8752E-02  7.7711E-02  6.6599E-02  5.5465E-02  4.4333E-02  3.3220E-02  2.2129E-02  1.1059E-02   0.000    
  94    1.000      0.9903      0.9808      0.9713      0.9621      0.9530      0.9442      0.9356      0.9272      0.9191    
       0.9111      0.9032      0.8953      0.8873      0.8794      0.8715      0.8633      0.8548      0.8463      0.8376    
       0.8278      0.8161      0.8031      0.7929      0.7862      0.7794      0.7715      0.7639      0.7566      0.7495    
       0.7426      0.7360      0.7313      0.7190      0.7053      0.6948      0.6808      0.6655      0.6505      0.6362    
       0.6223      0.6067      0.5902      0.5736      0.5574      0.5414      0.5256      0.5100      0.4946      0.4794    
       0.4648      0.4507      0.4365      0.4216      0.4062      0.3906      0.3753      0.3605      0.3456      0.3303    
       0.3169      0.3085      0.2996      0.2876      0.2766      0.2691      0.2637      0.2587      0.2538      0.2487    
       0.2436      0.2387      0.2334      0.2257      0.2196      0.2138      0.2085      0.2038      0.1996      0.1958    
       0.1920      0.1875      0.1822      0.1757      0.1680      0.1591      0.1493      0.1387      0.1276      0.1161    
       0.1044      9.2692E-02  8.0931E-02  6.9200E-02  5.7525E-02  4.5916E-02  3.4371E-02  2.2881E-02  1.1430E-02   0.000    
  95    1.000      0.9905      0.9811      0.9718      0.9627      0.9537      0.9449      0.9362      0.9278      0.9195    
       0.9113      0.9032      0.8950      0.8869      0.8787      0.8705      0.8620      0.8534      0.8444      0.8351    
       0.8251      0.8141      0.8023      0.7902      0.7810      0.7756      0.7666      0.7590      0.7519      0.7447    
       0.7376      0.7305      0.7229      0.7121      0.7040      0.6987      0.6866      0.6692      0.6536      0.6400    
       0.6286      0.6120      0.5938      0.5763      0.5595      0.5432      0.5272      0.5113      0.4955      0.4799    
       0.4653      0.4521      0.4388      0.4234      0.4070      0.3905      0.3746      0.3602      0.3450      0.3266    
       0.3132      0.3093      0.3029      0.2947      0.2841      0.2763      0.2701      0.2648      0.2598      0.2544    
       0.2490      0.2443      0.2395      0.2339      0.2285      0.2235      0.2189      0.2148      0.2110      0.2075    
       0.2038      0.1996      0.1943      0.1877      0.1795      0.1698      0.1589      0.1471      0.1347      0.1220    
       0.1093      9.6649E-02  8.4122E-02  7.1745E-02  5.9520E-02  4.7434E-02  3.5467E-02  2.3592E-02  1.1780E-02   0.000    
  96    1.000      0.9907      0.9814      0.9722      0.9631      0.9542      0.9454      0.9367      0.9281      0.9197    
       0.9114      0.9031      0.8948      0.8865      0.8781      0.8696      0.8610      0.8521      0.8430      0.8334    
       0.8234      0.8128      0.8017      0.7907      0.7806      0.7703      0.7603      0.7538      0.7472      0.7397    
       0.7326      0.7254      0.7178      0.7092      0.7011      0.6938      0.6862      0.6711      0.6545      0.6415    
       0.6344      0.6190      0.5968      0.5782      0.5612      0.5448      0.5287      0.5126      0.4963      0.4795    
       0.4642      0.4538      0.4431      0.4263      0.4080      0.3896      0.3726      0.3606      0.3475      0.3309    
       0.3168      0.3117      0.3049      0.2972      0.2889      0.2818      0.2758      0.2707      0.2660      0.2603    
       0.2553      0.2509      0.2464      0.2417      0.2371      0.2328      0.2289      0.2253      0.2221      0.2192    
       0.2163      0.2127      0.2079      0.2013      0.1925      0.1818      0.1695      0.1560      0.1421      0.1280    
       0.1141      0.1005      8.7163E-02  7.4138E-02  6.1376E-02  4.8835E-02  3.6471E-02  2.4241E-02  1.2099E-02   0.000    
  97    1.000      0.9908      0.9816      0.9725      0.9635      0.9545      0.9457      0.9370      0.9284      0.9199    
       0.9115      0.9031      0.8946      0.8862      0.8776      0.8690      0.8602      0.8512      0.8419      0.8322    
       0.8222      0.8118      0.8012      0.7905      0.7799      0.7691      0.7575      0.7487      0.7434      0.7344    
       0.7277      0.7209      0.7136      0.7057      0.6976      0.6890      0.6790      0.6654      0.6533      0.6426    
       0.6347      0.6175      0.5963      0.5786      0.5622      0.5461      0.5302      0.5142      0.4974      0.4777    
       0.4611      0.4547      0.4484      0.4306      0.4091      0.3874      0.3691      0.3613      0.3507      0.3387    
       0.3251      0.3160      0.3079      0.3001      0.2926      0.2861      0.2806      0.2762      0.2734      0.2672    
       0.2621      0.2576      0.2534      0.2494      0.2455      0.2418      0.2385      0.2355      0.2330      0.2310    
       0.2296      0.2271      0.2232      0.2171      0.2074      0.1954      0.1811      0.1655      0.1495      0.1338    
       0.1186      0.1040      8.9910E-02  7.6269E-02  6.3010E-02  5.0057E-02  3.7343E-02  2.4801E-02  1.2373E-02   0.000    
  98    1.000      0.9909      0.9817      0.9727      0.9637      0.9548      0.9460      0.9372      0.9286      0.9200    
       0.9115      0.9030      0.8945      0.8859      0.8773      0.8685      0.8596      0.8505      0.8411      0.8314    
       0.8215      0.8112      0.8007      0.7901      0.7794      0.7686      0.7577      0.7475      0.7369      0.7270    
       0.7228      0.7167      0.7100      0.7026      0.6945      0.6856      0.6754      0.6637      0.6518      0.6400    
       0.6274      0.6103      0.5941      0.5783      0.5625      0.5468      0.5310      0.5153      0.4995      0.4835    
       0.4671      0.4548      0.4425      0.4260      0.4098      0.3936      0.3765      0.3640      0.3522      0.3405    
       0.3289      0.3191      0.3105      0.3026      0.2955      0.2893      0.2841      0.2803      0.2780      0.2738    
       0.2683      0.2641      0.2604      0.2569      0.2536      0.2505      0.2477      0.2452      0.2432      0.2424    
       0.2437      0.2429      0.2408      0.2365      0.2244      0.2114      0.1941      0.1753      0.1567      0.1391    
       0.1226      0.1070      9.2201E-02  7.8019E-02  6.4337E-02  5.1043E-02  3.8041E-02  2.5248E-02  1.2591E-02   0.000    
  99    1.000      0.9909      0.9818      0.9728      0.9638      0.9549      0.9461      0.9374      0.9287      0.9201    
       0.9115      0.9030      0.8944      0.8858      0.8770      0.8682      0.8592      0.8500      0.8406      0.8309    
       0.8210      0.8108      0.8004      0.7898      0.7791      0.7682      0.7572      0.7458      0.7328      0.7235    
       0.7198      0.7132      0.7071      0.7002      0.6923      0.6834      0.6733      0.6622      0.6504      0.6380    
       0.6245      0.6094      0.5938      0.5781      0.5624      0.5468      0.5311      0.5154      0.4997      0.4841    
       0.4689      0.4548      0.4408      0.4255      0.4100      0.3945      0.3794      0.3660      0.3537      0.3420    
       0.3310      0.3212      0.3124      0.3045      0.2974      0.2914      0.2864      0.2827      0.2805      0.2774    
       0.2733      0.2700      0.2671      0.2642      0.2615      0.2590      0.2566      0.2543      0.2525      0.2514    
       0.2521      0.2515      0.2508      0.2502      0.2424      0.2318      0.2087      0.1847      0.1629      0.1434    
       0.1256      0.1092      9.3861E-02  7.9270E-02  6.5277E-02  5.1736E-02  3.8530E-02  2.5561E-02  1.2743E-02   0.000    
 100    1.000      0.9909      0.9819      0.9729      0.9639      0.9550      0.9462      0.9374      0.9288      0.9201    
       0.9115      0.9029      0.8943      0.8857      0.8769      0.8680      0.8590      0.8498      0.8403      0.8307    
       0.8207      0.8106      0.8002      0.7896      0.7789      0.7680      0.7570      0.7457      0.7343      0.7245    
       0.7165      0.7092      0.7050      0.6988      0.6911      0.6823      0.6723      0.6614      0.6496      0.6370    
       0.6234      0.6088      0.5935      0.5780      0.5624      0.5468      0.5311      0.5155      0.4999      0.4845    
       0.4694      0.4548      0.4403      0.4253      0.4101      0.3950      0.3804      0.3670      0.3545      0.3428    
       0.3320      0.3222      0.3133      0.3054      0.2984      0.2925      0.2875      0.2837      0.2807      0.2781    
       0.2755      0.2729      0.2703      0.2679      0.2655      0.2632      0.2609      0.2588      0.2567      0.2548    
       0.2528      0.2517      0.2508      0.2501      0.2491      0.2483      0.2242      0.1919      0.1669      0.1459    
       0.1273      0.1104      9.4738E-02  7.9925E-02  6.5765E-02  5.2094E-02  3.8782E-02  2.5721E-02  1.2821E-02   0.000    

 HEAD WILL BE SAVED ON UNIT   51 AT END OF TIME STEP    1, STRESS PERIOD    1
1
  VOLUMETRIC BUDGET FOR ENTIRE MODEL AT END OF TIME STEP    1, STRESS PERIOD   1
  ------------------------------------------------------------------------------

     CUMULATIVE VOLUMES      L**3       RATES FOR THIS TIME STEP      L**3/T
     ------------------                 ------------------------

           IN:                                      IN:
           ---                                      ---
             STORAGE =           0.0000               STORAGE =           0.0000
       CONSTANT HEAD =           0.1218         CONSTANT HEAD =           0.1218
               WELLS =           0.0000                 WELLS =           0.0000

            TOTAL IN =           0.1218              TOTAL IN =           0.1218

          OUT:                                     OUT:
          ----                                     ----
             STORAGE =           0.0000               STORAGE =           0.0000
       CONSTANT HEAD =           0.1188         CONSTANT HEAD =           0.1188
               WELLS =       3.0000E-03                 WELLS =       3.0000E-03

           TOTAL OUT =           0.1218             TOTAL OUT =           0.1218

            IN - OUT =      -1.0535E-05              IN - OUT =      -1.0535E-05

 PERCENT DISCREPANCY =          -0.01     PERCENT DISCREPANCY =          -0.01






         TIME SUMMARY AT END OF TIME STEP    1 IN STRESS PERIOD    1
                    SECONDS     MINUTES      HOURS       DAYS        YEARS
                    -----------------------------------------------------------
   TIME STEP LENGTH  86400.      1440.0      24.000      1.0000     2.73785E-03
 STRESS PERIOD TIME  86400.      1440.0      24.000      1.0000     2.73785E-03
         TOTAL TIME  86400.      1440.0      24.000      1.0000     2.73785E-03
1

 Run end date and time (yyyy/mm/dd hh:mm:ss): 2018/11/17 20:38:26
 Elapsed run time:  0.096 Seconds

