                                  MODFLOW-2005     
      U.S. GEOLOGICAL SURVEY MODULAR FINITE-DIFFERENCE GROUND-WATER FLOW MODEL
                            VERSION 1.12.00 2/3/2017

 LIST FILE: true_flow.list
                         UNIT    2

 OPENING true_flow.dis
 FILE TYPE:DIS   UNIT   11   STATUS:OLD    
 FORMAT:FORMATTED              ACCESS:SEQUENTIAL          

 OPENING true_flow.bas
 FILE TYPE:BAS6   UNIT   13   STATUS:OLD    
 FORMAT:FORMATTED              ACCESS:SEQUENTIAL          

 OPENING true_flow.wel
 FILE TYPE:WEL   UNIT   20   STATUS:OLD    
 FORMAT:FORMATTED              ACCESS:SEQUENTIAL          

 OPENING true_flow.oc
 FILE TYPE:OC   UNIT   14   STATUS:OLD    
 FORMAT:FORMATTED              ACCESS:SEQUENTIAL          

 OPENING true_flow.pcg
 FILE TYPE:PCG   UNIT   27   STATUS:OLD    
 FORMAT:FORMATTED              ACCESS:SEQUENTIAL          

 OPENING true_flow.lpf
 FILE TYPE:LPF   UNIT   15   STATUS:OLD    
 FORMAT:FORMATTED              ACCESS:SEQUENTIAL          

 OPENING true_flow.hds
 FILE TYPE:DATA(BINARY)   UNIT   51   STATUS:REPLACE
 FORMAT:UNFORMATTED            ACCESS:STREAM              

 OPENING true_flow.cbc
 FILE TYPE:DATA(BINARY)   UNIT   53   STATUS:REPLACE
 FORMAT:UNFORMATTED            ACCESS:STREAM              

 BAS -- BASIC PACKAGE, VERSION 7, 5/2/2005 INPUT READ FROM UNIT   13

 MODFLOW was compiled using mixed precision
 Precision of REAL variables:           6
 Precision of DOUBLE PRECISION variables:          15

 DISCRETIZATION INPUT DATA READ FROM UNIT   11
 # DIS package for  MODFLOW-2005, generated by Flopy.
    1 LAYERS       100 ROWS       100 COLUMNS
    1 STRESS PERIOD(S) IN SIMULATION
 MODEL TIME UNIT IS DAYS
 MODEL LENGTH UNIT IS METERS
  Confining bed flag for each layer:
   0

                     DELR =   1.00000    

                     DELC =   1.00000    

 TOP ELEVATION OF LAYER 1 =   0.00000    

   MODEL LAYER BOTTOM EL. =  -50.0000     FOR LAYER   1


 STRESS PERIOD     LENGTH       TIME STEPS     MULTIPLIER FOR DELT    SS FLAG
 ----------------------------------------------------------------------------
        1         1.000000          1                    1.000         SS

 STEADY-STATE SIMULATION




 # BAS6 package for  MODFLOW-2005, generated by Flopy.                           
 THE FREE FORMAT OPTION HAS BEEN SELECTED



                     BOUNDARY ARRAY FOR LAYER   1
 READING ON UNIT   13 WITH FORMAT: (100I10)            

 AQUIFER HEAD WILL BE SET TO  -999.99     AT ALL NO-FLOW NODES (IBOUND=0).



                       INITIAL HEAD FOR LAYER   1
 READING ON UNIT   13 WITH FORMAT: (100E15.6)          
 # OC package for  MODFLOW-2005, generated by Flopy.

 OUTPUT CONTROL IS SPECIFIED ONLY AT TIME STEPS FOR WHICH OUTPUT IS DESIRED
 COMPACT CELL-BY-CELL BUDGET FILES WILL BE WRITTEN
 AUXILIARY DATA WILL BE SAVED IN CELL-BY-CELL BUDGET FILES
 HEAD PRINT FORMAT CODE IS   0    DRAWDOWN PRINT FORMAT CODE IS   0
 HEADS WILL BE SAVED ON UNIT   51    DRAWDOWNS WILL BE SAVED ON UNIT    0

 LPF -- LAYER-PROPERTY FLOW PACKAGE, VERSION 7, 5/2/2005
         INPUT READ FROM UNIT   15
 # LPF package for  MODFLOW-2005, generated by Flopy.
 CELL-BY-CELL FLOWS WILL BE SAVED ON UNIT   53
 HEAD AT CELLS THAT CONVERT TO DRY= -1.00000E+30
 No named parameters

   LAYER FLAGS:
 LAYER       LAYTYP        LAYAVG         CHANI        LAYVKA        LAYWET
 ---------------------------------------------------------------------------
    1             0             0     1.000E+00             0             0

   INTERPRETATION OF LAYER FLAGS:
                        INTERBLOCK     HORIZONTAL    DATA IN
         LAYER TYPE   TRANSMISSIVITY   ANISOTROPY   ARRAY VKA   WETTABILITY
 LAYER      (LAYTYP)      (LAYAVG)       (CHANI)      (LAYVKA)      (LAYWET)
 ---------------------------------------------------------------------------
    1      CONFINED      HARMONIC     1.000E+00    VERTICAL K  NON-WETTABLE

 WETTING CAPABILITY IS NOT ACTIVE IN ANY LAYER



              HYD. COND. ALONG ROWS FOR LAYER   1
 READING ON UNIT   15 WITH FORMAT: (100E15.6)          

      VERTICAL HYD. COND. =   0.00000     FOR LAYER   1

 WEL -- WELL PACKAGE, VERSION 7, 5/2/2005 INPUT READ FROM UNIT   20
 # WEL package for  MODFLOW-2005, generated by Flopy.
 No named parameters
 MAXIMUM OF      1 ACTIVE WELLS AT ONE TIME


     0 Well parameters

 PCG -- CONJUGATE-GRADIENT SOLUTION PACKAGE, VERSION 7, 5/2/2005
 # PCG package for  MODFLOW-2005, generated by Flopy.
 MAXIMUM OF     50 CALLS OF SOLUTION ROUTINE
 MAXIMUM OF     30 INTERNAL ITERATIONS PER CALL TO SOLUTION ROUTINE
 MATRIX PRECONDITIONING TYPE :    1



                                    SOLUTION BY THE CONJUGATE-GRADIENT METHOD
                                   -------------------------------------------
                    MAXIMUM NUMBER OF CALLS TO PCG ROUTINE =       50
                        MAXIMUM ITERATIONS PER CALL TO PCG =       30
                               MATRIX PRECONDITIONING TYPE =        1
        RELAXATION FACTOR (ONLY USED WITH PRECOND. TYPE 1) =    0.10000E+01
 PARAMETER OF POLYNOMIAL PRECOND. = 2 (2) OR IS CALCULATED :        0
                         HEAD CHANGE CRITERION FOR CLOSURE =    0.10000E-04
                     RESIDUAL CHANGE CRITERION FOR CLOSURE =    0.10000E-04
            PCG HEAD AND RESIDUAL CHANGE PRINTOUT INTERVAL =      999
     PRINTING FROM SOLVER IS LIMITED(1) OR SUPPRESSED (>1) =        3
                            STEADY-STATE DAMPING PARAMETER =    0.10000E+01
                               TRANSIENT DAMPING PARAMETER =    0.10000E+01
1
                            STRESS PERIOD NO.    1, LENGTH =   1.000000    
                            -----------------------------------------------

                              NUMBER OF TIME STEPS =     1

                               MULTIPLIER FOR DELT =     1.000

                            INITIAL TIME STEP SIZE =   1.000000    

 WELL NO.  LAYER   ROW   COL   STRESS RATE         
 --------------------------------------------------
      1      1     51     51     -0.3000E-02

      1 WELL 

 SOLVING FOR HEAD 

 OUTPUT CONTROL FOR STRESS PERIOD    1   TIME STEP    1
    PRINT HEAD FOR ALL LAYERS
    PRINT BUDGET
    SAVE HEAD FOR ALL LAYERS
    SAVE BUDGET
 UBDSV2 SAVING "   CONSTANT HEAD" ON UNIT  53 AT TIME STEP  1, STRESS PERIOD   1
 UBDSV1 SAVING "FLOW RIGHT FACE " ON UNIT  53 AT TIME STEP  1, STRESS PERIOD   1
 UBDSV1 SAVING "FLOW FRONT FACE " ON UNIT  53 AT TIME STEP  1, STRESS PERIOD   1
1
              HEAD IN LAYER   1 AT END OF TIME STEP   1 IN STRESS PERIOD    1
  ---------------------------------------------------------------------------

            1           2           3           4           5           6           7           8           9          10
           11          12          13          14          15          16          17          18          19          20
           21          22          23          24          25          26          27          28          29          30
           31          32          33          34          35          36          37          38          39          40
           41          42          43          44          45          46          47          48          49          50
           51          52          53          54          55          56          57          58          59          60
           61          62          63          64          65          66          67          68          69          70
           71          72          73          74          75          76          77          78          79          80
           81          82          83          84          85          86          87          88          89          90
           91          92          93          94          95          96          97          98          99         100
 ........................................................................................................................
   1    1.000      0.9924      0.9851      0.9784      0.9722      0.9667      0.9618      0.9578      0.9550      0.9497    
       0.9439      0.9377      0.9315      0.9256      0.9194      0.9131      0.9068      0.9003      0.8939      0.8875    
       0.8812      0.8749      0.8683      0.8614      0.8543      0.8469      0.8393      0.8315      0.8234      0.8151    
       0.8065      0.7977      0.7885      0.7791      0.7694      0.7594      0.7491      0.7386      0.7279      0.7169    
       0.7058      0.6944      0.6828      0.6710      0.6591      0.6470      0.6348      0.6224      0.6099      0.5974    
       0.5848      0.5721      0.5594      0.5467      0.5340      0.5214      0.5088      0.4963      0.4838      0.4715    
       0.4592      0.4470      0.4350      0.4230      0.4110      0.3991      0.3873      0.3755      0.3637      0.3520    
       0.3402      0.3285      0.3167      0.3049      0.2932      0.2814      0.2697      0.2580      0.2463      0.2346    
       0.2229      0.2113      0.1996      0.1880      0.1764      0.1648      0.1532      0.1415      0.1299      0.1182    
       0.1065      9.4796E-02  8.3036E-02  7.1244E-02  5.9423E-02  4.7574E-02  3.5702E-02  2.3811E-02  1.1910E-02   0.000    
   2    1.000      0.9920      0.9846      0.9778      0.9716      0.9660      0.9610      0.9565      0.9523      0.9473    
       0.9440      0.9378      0.9311      0.9260      0.9196      0.9131      0.9069      0.9003      0.8938      0.8875    
       0.8813      0.8751      0.8686      0.8617      0.8545      0.8471      0.8395      0.8317      0.8237      0.8154    
       0.8068      0.7980      0.7888      0.7794      0.7696      0.7596      0.7494      0.7389      0.7281      0.7171    
       0.7060      0.6946      0.6830      0.6712      0.6593      0.6471      0.6349      0.6225      0.6100      0.5975    
       0.5848      0.5721      0.5594      0.5467      0.5340      0.5214      0.5087      0.4962      0.4838      0.4714    
       0.4591      0.4470      0.4349      0.4229      0.4110      0.3991      0.3873      0.3755      0.3637      0.3520    
       0.3402      0.3285      0.3167      0.3049      0.2932      0.2814      0.2697      0.2579      0.2462      0.2346    
       0.2229      0.2112      0.1996      0.1880      0.1764      0.1648      0.1532      0.1416      0.1299      0.1183    
       0.1066      9.4827E-02  8.3066E-02  7.1273E-02  5.9450E-02  4.7599E-02  3.5724E-02  2.3828E-02  1.1914E-02   0.000    
   3    1.000      0.9912      0.9835      0.9765      0.9703      0.9648      0.9597      0.9550      0.9504      0.9456    
       0.9409      0.9349      0.9301      0.9267      0.9200      0.9128      0.9072      0.9004      0.8935      0.8872    
       0.8814      0.8757      0.8692      0.8623      0.8550      0.8475      0.8399      0.8322      0.8242      0.8160    
       0.8074      0.7986      0.7894      0.7799      0.7702      0.7601      0.7499      0.7393      0.7286      0.7176    
       0.7064      0.6950      0.6834      0.6716      0.6596      0.6474      0.6351      0.6227      0.6102      0.5976    
       0.5849      0.5722      0.5594      0.5467      0.5339      0.5212      0.5086      0.4960      0.4836      0.4712    
       0.4589      0.4468      0.4347      0.4227      0.4108      0.3990      0.3872      0.3755      0.3637      0.3520    
       0.3402      0.3285      0.3167      0.3049      0.2931      0.2814      0.2696      0.2579      0.2462      0.2345    
       0.2229      0.2112      0.1996      0.1880      0.1764      0.1648      0.1532      0.1416      0.1300      0.1183    
       0.1066      9.4890E-02  8.3129E-02  7.1333E-02  5.9504E-02  4.7645E-02  3.5761E-02  2.3852E-02  1.1929E-02   0.000    
   4    1.000      0.9893      0.9816      0.9745      0.9685      0.9631      0.9581      0.9533      0.9486      0.9439    
       0.9389      0.9337      0.9286      0.9235      0.9171      0.9118      0.9081      0.9006      0.8925      0.8865    
       0.8815      0.8769      0.8704      0.8631      0.8557      0.8481      0.8405      0.8328      0.8250      0.8168    
       0.8083      0.7994      0.7903      0.7808      0.7710      0.7609      0.7506      0.7400      0.7292      0.7182    
       0.7070      0.6956      0.6839      0.6721      0.6601      0.6479      0.6355      0.6231      0.6105      0.5978    
       0.5851      0.5723      0.5594      0.5466      0.5338      0.5211      0.5084      0.4958      0.4833      0.4709    
       0.4586      0.4465      0.4345      0.4225      0.4107      0.3989      0.3871      0.3754      0.3637      0.3520    
       0.3402      0.3285      0.3167      0.3049      0.2931      0.2813      0.2696      0.2578      0.2461      0.2344    
       0.2228      0.2112      0.1996      0.1880      0.1764      0.1648      0.1533      0.1417      0.1300      0.1184    
       0.1067      9.4988E-02  8.3227E-02  7.1427E-02  5.9589E-02  4.7717E-02  3.5815E-02  2.3891E-02  1.1950E-02   0.000    
   5    1.000      0.9844      0.9791      0.9714      0.9659      0.9610      0.9562      0.9516      0.9470      0.9422    
       0.9374      0.9323      0.9271      0.9217      0.9159      0.9102      0.9045      0.8972      0.8910      0.8856    
       0.8813      0.8784      0.8725      0.8641      0.8564      0.8487      0.8411      0.8337      0.8261      0.8181    
       0.8096      0.8007      0.7914      0.7819      0.7720      0.7619      0.7516      0.7410      0.7302      0.7191    
       0.7078      0.6964      0.6847      0.6728      0.6607      0.6484      0.6360      0.6235      0.6108      0.5981    
       0.5852      0.5724      0.5595      0.5465      0.5337      0.5208      0.5081      0.4954      0.4829      0.4705    
       0.4582      0.4461      0.4341      0.4222      0.4104      0.3987      0.3870      0.3753      0.3637      0.3520    
       0.3402      0.3285      0.3167      0.3049      0.2931      0.2813      0.2695      0.2578      0.2460      0.2343    
       0.2227      0.2111      0.1995      0.1880      0.1764      0.1649      0.1533      0.1417      0.1302      0.1185    
       0.1068      9.5125E-02  8.3363E-02  7.1557E-02  5.9708E-02  4.7819E-02  3.5895E-02  2.3946E-02  1.1978E-02   0.000    
   6    1.000      0.9861      0.9750      0.9660      0.9629      0.9586      0.9543      0.9498      0.9454      0.9408    
       0.9360      0.9310      0.9258      0.9203      0.9146      0.9086      0.9025      0.8961      0.8900      0.8846    
       0.8799      0.8757      0.8717      0.8646      0.8571      0.8493      0.8417      0.8346      0.8276      0.8198    
       0.8112      0.8022      0.7929      0.7833      0.7734      0.7632      0.7528      0.7421      0.7313      0.7202    
       0.7089      0.6974      0.6856      0.6737      0.6615      0.6492      0.6367      0.6240      0.6113      0.5984    
       0.5855      0.5725      0.5595      0.5464      0.5335      0.5205      0.5077      0.4950      0.4824      0.4700    
       0.4577      0.4456      0.4336      0.4218      0.4101      0.3985      0.3869      0.3753      0.3637      0.3520    
       0.3403      0.3285      0.3167      0.3049      0.2931      0.2812      0.2694      0.2576      0.2459      0.2342    
       0.2226      0.2110      0.1994      0.1879      0.1764      0.1649      0.1534      0.1419      0.1303      0.1187    
       0.1070      9.5308E-02  8.3545E-02  7.1730E-02  5.9865E-02  4.7954E-02  3.6003E-02  2.4021E-02  1.2016E-02   0.000    
   7    1.000      0.9870      0.9733      0.9636      0.9610      0.9564      0.9524      0.9481      0.9439      0.9395    
       0.9348      0.9299      0.9247      0.9192      0.9134      0.9073      0.9010      0.8945      0.8884      0.8829    
       0.8778      0.8729      0.8678      0.8615      0.8575      0.8498      0.8416      0.8355      0.8301      0.8221    
       0.8133      0.8041      0.7947      0.7850      0.7750      0.7647      0.7542      0.7435      0.7326      0.7215    
       0.7102      0.6986      0.6868      0.6748      0.6625      0.6501      0.6375      0.6247      0.6118      0.5988    
       0.5858      0.5726      0.5595      0.5463      0.5332      0.5201      0.5072      0.4944      0.4817      0.4692    
       0.4570      0.4449      0.4330      0.4213      0.4097      0.3982      0.3868      0.3753      0.3637      0.3521    
       0.3404      0.3286      0.3168      0.3049      0.2930      0.2811      0.2693      0.2575      0.2457      0.2340    
       0.2224      0.2108      0.1993      0.1879      0.1764      0.1650      0.1535      0.1420      0.1305      0.1189    
       0.1072      9.5544E-02  8.3779E-02  7.1953E-02  6.0067E-02  4.8128E-02  3.6142E-02  2.4117E-02  1.2066E-02   0.000    
   8    1.000      0.9885      0.9772      0.9671      0.9599      0.9537      0.9508      0.9464      0.9425      0.9384    
       0.9340      0.9291      0.9239      0.9184      0.9125      0.9062      0.8995      0.8926      0.8864      0.8807    
       0.8755      0.8704      0.8650      0.8593      0.8536      0.8464      0.8405      0.8357      0.8325      0.8255    
       0.8156      0.8063      0.7969      0.7870      0.7768      0.7665      0.7559      0.7452      0.7342      0.7230    
       0.7116      0.7000      0.6882      0.6760      0.6637      0.6512      0.6384      0.6255      0.6125      0.5993    
       0.5861      0.5728      0.5595      0.5461      0.5329      0.5196      0.5066      0.4936      0.4809      0.4683    
       0.4561      0.4440      0.4323      0.4207      0.4093      0.3980      0.3866      0.3753      0.3638      0.3523    
       0.3406      0.3288      0.3169      0.3050      0.2930      0.2810      0.2691      0.2572      0.2454      0.2337    
       0.2221      0.2106      0.1992      0.1878      0.1764      0.1650      0.1536      0.1422      0.1307      0.1192    
       0.1075      9.5841E-02  8.4074E-02  7.2235E-02  6.0325E-02  4.8350E-02  3.6319E-02  2.4240E-02  1.2129E-02   0.000    
   9    1.000      0.9898      0.9799      0.9708      0.9630      0.9557      0.9496      0.9440      0.9414      0.9378    
       0.9335      0.9287      0.9235      0.9179      0.9119      0.9054      0.8982      0.8899      0.8837      0.8782    
       0.8731      0.8680      0.8626      0.8570      0.8512      0.8450      0.8393      0.8341      0.8295      0.8251    
       0.8172      0.8088      0.7994      0.7893      0.7789      0.7684      0.7578      0.7470      0.7360      0.7248    
       0.7134      0.7017      0.6898      0.6776      0.6651      0.6524      0.6396      0.6265      0.6133      0.5999    
       0.5865      0.5730      0.5595      0.5459      0.5324      0.5190      0.5058      0.4926      0.4798      0.4672    
       0.4549      0.4429      0.4313      0.4199      0.4087      0.3977      0.3866      0.3754      0.3641      0.3526    
       0.3409      0.3290      0.3171      0.3050      0.2930      0.2809      0.2689      0.2569      0.2451      0.2334    
       0.2218      0.2103      0.1990      0.1877      0.1764      0.1651      0.1538      0.1424      0.1310      0.1195    
       0.1079      9.6211E-02  8.4442E-02  7.2587E-02  6.0648E-02  4.8630E-02  3.6542E-02  2.4396E-02  1.2209E-02   0.000    
  10    1.000      0.9908      0.9818      0.9734      0.9657      0.9585      0.9521      0.9461      0.9420      0.9378    
       0.9332      0.9282      0.9228      0.9170      0.9106      0.9034      0.8938      0.8851      0.8802      0.8754    
       0.8707      0.8658      0.8605      0.8549      0.8492      0.8433      0.8375      0.8319      0.8264      0.8208    
       0.8144      0.8105      0.8028      0.7918      0.7810      0.7704      0.7598      0.7490      0.7380      0.7268    
       0.7154      0.7037      0.6917      0.6793      0.6668      0.6539      0.6408      0.6276      0.6142      0.6006    
       0.5869      0.5732      0.5595      0.5457      0.5320      0.5183      0.5048      0.4915      0.4784      0.4657    
       0.4534      0.4415      0.4300      0.4189      0.4081      0.3974      0.3866      0.3757      0.3645      0.3530    
       0.3413      0.3294      0.3173      0.3051      0.2929      0.2807      0.2686      0.2565      0.2446      0.2329    
       0.2213      0.2100      0.1987      0.1875      0.1764      0.1652      0.1540      0.1428      0.1314      0.1199    
       0.1083      9.6668E-02  8.4897E-02  7.3024E-02  6.1051E-02  4.8981E-02  3.6823E-02  2.4592E-02  1.2310E-02   0.000    
  11    1.000      0.9915      0.9831      0.9752      0.9677      0.9607      0.9542      0.9483      0.9431      0.9381    
       0.9329      0.9275      0.9218      0.9157      0.9090      0.9015      0.8929      0.8834      0.8765      0.8726    
       0.8686      0.8640      0.8587      0.8529      0.8473      0.8415      0.8356      0.8295      0.8234      0.8174    
       0.8117      0.8068      0.8023      0.7941      0.7829      0.7726      0.7620      0.7511      0.7401      0.7290    
       0.7176      0.7059      0.6938      0.6814      0.6687      0.6556      0.6423      0.6289      0.6152      0.6014    
       0.5875      0.5735      0.5595      0.5454      0.5314      0.5174      0.5036      0.4900      0.4767      0.4638    
       0.4514      0.4396      0.4284      0.4177      0.4074      0.3971      0.3868      0.3762      0.3652      0.3537    
       0.3419      0.3299      0.3176      0.3053      0.2929      0.2805      0.2681      0.2560      0.2440      0.2322    
       0.2207      0.2095      0.1984      0.1874      0.1764      0.1654      0.1543      0.1432      0.1319      0.1204    
       0.1089      9.7225E-02  8.5453E-02  7.3562E-02  6.1550E-02  4.9419E-02  3.7176E-02  2.4841E-02  1.2438E-02   0.000    
  12    1.000      0.9920      0.9841      0.9765      0.9692      0.9623      0.9558      0.9497      0.9440      0.9385    
       0.9329      0.9272      0.9212      0.9149      0.9081      0.9008      0.8928      0.8844      0.8759      0.8699    
       0.8671      0.8628      0.8574      0.8508      0.8454      0.8399      0.8338      0.8272      0.8202      0.8138    
       0.8081      0.8029      0.7978      0.7927      0.7841      0.7749      0.7645      0.7535      0.7424      0.7315    
       0.7202      0.7085      0.6964      0.6838      0.6708      0.6576      0.6440      0.6303      0.6164      0.6023    
       0.5881      0.5738      0.5595      0.5451      0.5307      0.5164      0.5022      0.4882      0.4746      0.4614    
       0.4489      0.4372      0.4263      0.4161      0.4065      0.3970      0.3873      0.3772      0.3663      0.3548    
       0.3429      0.3306      0.3181      0.3055      0.2928      0.2801      0.2676      0.2552      0.2431      0.2313    
       0.2199      0.2088      0.1979      0.1872      0.1764      0.1657      0.1548      0.1437      0.1324      0.1211    
       0.1095      9.7898E-02  8.6127E-02  7.4221E-02  6.2169E-02  4.9967E-02  3.7623E-02  2.5157E-02  1.2602E-02   0.000    
  13    1.000      0.9924      0.9848      0.9775      0.9703      0.9635      0.9570      0.9508      0.9448      0.9390    
       0.9331      0.9272      0.9210      0.9146      0.9078      0.9007      0.8932      0.8856      0.8781      0.8715    
       0.8667      0.8613      0.8540      0.8474      0.8438      0.8387      0.8326      0.8253      0.8164      0.8096    
       0.8040      0.7988      0.7935      0.7877      0.7808      0.7766      0.7679      0.7557      0.7446      0.7343    
       0.7232      0.7116      0.6994      0.6865      0.6733      0.6598      0.6460      0.6319      0.6177      0.6033    
       0.5888      0.5742      0.5595      0.5448      0.5301      0.5153      0.5006      0.4861      0.4720      0.4584    
       0.4457      0.4340      0.4233      0.4141      0.4055      0.3969      0.3882      0.3788      0.3680      0.3564    
       0.3441      0.3315      0.3187      0.3057      0.2927      0.2797      0.2668      0.2542      0.2419      0.2300    
       0.2187      0.2079      0.1973      0.1869      0.1766      0.1661      0.1553      0.1444      0.1332      0.1218    
       0.1103      9.8697E-02  8.6939E-02  7.5026E-02  6.2937E-02  5.0658E-02  3.8191E-02  2.5562E-02  1.2812E-02   0.000    
  14    1.000      0.9926      0.9853      0.9782      0.9712      0.9644      0.9579      0.9516      0.9455      0.9394    
       0.9334      0.9273      0.9210      0.9146      0.9079      0.9010      0.8938      0.8865      0.8794      0.8726    
       0.8664      0.8600      0.8530      0.8465      0.8409      0.8343      0.8265      0.8171      0.8103      0.8043    
       0.7995      0.7947      0.7896      0.7840      0.7780      0.7725      0.7670      0.7568      0.7461      0.7378    
       0.7268      0.7154      0.7029      0.6897      0.6761      0.6622      0.6481      0.6337      0.6191      0.6044    
       0.5895      0.5746      0.5596      0.5445      0.5294      0.5141      0.4989      0.4837      0.4688      0.4545    
       0.4414      0.4297      0.4188      0.4116      0.4044      0.3971      0.3897      0.3820      0.3706      0.3585    
       0.3456      0.3325      0.3194      0.3061      0.2925      0.2791      0.2659      0.2529      0.2402      0.2282    
       0.2171      0.2067      0.1966      0.1867      0.1768      0.1667      0.1562      0.1452      0.1341      0.1227    
       0.1112      9.9627E-02  8.7904E-02  7.6008E-02  6.3894E-02  5.1535E-02  3.8923E-02  2.6086E-02  1.3086E-02   0.000    
  15    1.000      0.9928      0.9857      0.9787      0.9718      0.9651      0.9586      0.9523      0.9460      0.9399    
       0.9337      0.9276      0.9213      0.9148      0.9082      0.9014      0.8944      0.8874      0.8803      0.8733    
       0.8663      0.8592      0.8517      0.8440      0.8359      0.8267      0.8160      0.8049      0.8014      0.7978    
       0.7950      0.7909      0.7861      0.7807      0.7748      0.7686      0.7616      0.7526      0.7456      0.7409    
       0.7310      0.7201      0.7071      0.6932      0.6792      0.6650      0.6505      0.6358      0.6208      0.6056    
       0.5904      0.5751      0.5598      0.5443      0.5287      0.5130      0.4971      0.4810      0.4649      0.4494    
       0.4357      0.4247      0.4147      0.4102      0.4040      0.3972      0.3905      0.3855      0.3740      0.3614    
       0.3475      0.3336      0.3204      0.3065      0.2923      0.2784      0.2647      0.2512      0.2379      0.2255    
       0.2149      0.2051      0.1956      0.1864      0.1772      0.1678      0.1573      0.1464      0.1352      0.1238    
       0.1122      0.1007      8.9042E-02  7.7207E-02  6.5096E-02  5.2665E-02  3.9878E-02  2.6775E-02  1.3445E-02   0.000    
  16    1.000      0.9930      0.9860      0.9791      0.9723      0.9657      0.9591      0.9528      0.9465      0.9403    
       0.9341      0.9279      0.9217      0.9153      0.9088      0.9021      0.8952      0.8882      0.8811      0.8739    
       0.8665      0.8588      0.8506      0.8418      0.8321      0.8206      0.8060      0.7948      0.7944      0.7941    
       0.7917      0.7879      0.7832      0.7778      0.7718      0.7653      0.7583      0.7506      0.7433      0.7365    
       0.7285      0.7235      0.7124      0.6968      0.6824      0.6680      0.6532      0.6381      0.6226      0.6069    
       0.5913      0.5756      0.5600      0.5443      0.5283      0.5120      0.4954      0.4783      0.4605      0.4426    
       0.4314      0.4266      0.4188      0.4120      0.4047      0.3969      0.3890      0.3807      0.3706      0.3635    
       0.3492      0.3340      0.3222      0.3073      0.2918      0.2774      0.2634      0.2493      0.2348      0.2209    
       0.2118      0.2031      0.1945      0.1860      0.1779      0.1701      0.1590      0.1476      0.1366      0.1250    
       0.1133      0.1018      9.0384E-02  7.8681E-02  6.6620E-02  5.4148E-02  4.1151E-02  2.7689E-02  1.3919E-02   0.000    
  17    1.000      0.9931      0.9862      0.9794      0.9727      0.9660      0.9595      0.9532      0.9469      0.9407    
       0.9345      0.9284      0.9222      0.9159      0.9095      0.9029      0.8961      0.8892      0.8820      0.8746    
       0.8669      0.8588      0.8501      0.8406      0.8300      0.8178      0.8034      0.7949      0.7940      0.7925    
       0.7897      0.7858      0.7810      0.7755      0.7694      0.7627      0.7556      0.7481      0.7406      0.7332    
       0.7256      0.7187      0.7119      0.6992      0.6857      0.6712      0.6564      0.6408      0.6245      0.6082    
       0.5921      0.5762      0.5604      0.5444      0.5281      0.5114      0.4942      0.4765      0.4562      0.4414    
       0.4358      0.4296      0.4221      0.4142      0.4058      0.3969      0.3876      0.3779      0.3674      0.3568    
       0.3434      0.3324      0.3247      0.3085      0.2904      0.2758      0.2620      0.2479      0.2310      0.2161    
       0.2101      0.2022      0.1938      0.1856      0.1782      0.1728      0.1610      0.1484      0.1387      0.1264    
       0.1140      0.1028      9.2032E-02  8.0515E-02  6.8553E-02  5.6156E-02  4.2888E-02  2.8909E-02  1.4543E-02   0.000    
  18    1.000      0.9931      0.9863      0.9796      0.9729      0.9663      0.9598      0.9535      0.9472      0.9411    
       0.9350      0.9289      0.9228      0.9166      0.9103      0.9039      0.8972      0.8903      0.8832      0.8757    
       0.8678      0.8594      0.8503      0.8404      0.8294      0.8171      0.8033      0.7956      0.7944      0.7922    
       0.7889      0.7847      0.7796      0.7738      0.7674      0.7605      0.7532      0.7456      0.7378      0.7300    
       0.7220      0.7139      0.7053      0.6947      0.6879      0.6747      0.6604      0.6441      0.6265      0.6092    
       0.5927      0.5767      0.5610      0.5450      0.5284      0.5111      0.4935      0.4771      0.4610      0.4466    
       0.4410      0.4338      0.4257      0.4169      0.4074      0.3973      0.3868      0.3758      0.3645      0.3529    
       0.3408      0.3291      0.3174      0.3020      0.2880      0.2746      0.2616      0.2486      0.2355      0.2218    
       0.2118      0.2026      0.1936      0.1848      0.1763      0.1676      0.1566      0.1475      0.1410      0.1277    
       0.1137      0.1034      9.4430E-02  8.2794E-02  7.0923E-02  5.9035E-02  4.5334E-02  3.0517E-02  1.5344E-02   0.000    
  19    1.000      0.9932      0.9864      0.9797      0.9730      0.9664      0.9600      0.9537      0.9475      0.9414    
       0.9354      0.9294      0.9234      0.9174      0.9113      0.9051      0.8986      0.8918      0.8846      0.8771    
       0.8692      0.8607      0.8515      0.8414      0.8302      0.8179      0.8048      0.7973      0.7957      0.7929    
       0.7891      0.7844      0.7788      0.7727      0.7660      0.7588      0.7512      0.7433      0.7352      0.7269    
       0.7184      0.7097      0.7005      0.6908      0.6814      0.6704      0.6634      0.6488      0.6283      0.6095    
       0.5927      0.5770      0.5617      0.5461      0.5295      0.5112      0.4915      0.4773      0.4697      0.4571    
       0.4479      0.4391      0.4300      0.4202      0.4097      0.3982      0.3863      0.3740      0.3617      0.3496    
       0.3377      0.3259      0.3137      0.3005      0.2873      0.2743      0.2615      0.2487      0.2361      0.2238    
       0.2129      0.2028      0.1932      0.1837      0.1744      0.1649      0.1547      0.1447      0.1348      0.1222    
       0.1116      0.1029      9.7009E-02  8.5309E-02  7.3309E-02  6.3729E-02  4.8894E-02  3.2482E-02  1.6315E-02   0.000    
  20    1.000      0.9932      0.9864      0.9797      0.9730      0.9665      0.9600      0.9537      0.9476      0.9416    
       0.9357      0.9299      0.9241      0.9183      0.9125      0.9065      0.9002      0.8935      0.8865      0.8791    
       0.8712      0.8627      0.8535      0.8434      0.8321      0.8197      0.8079      0.8006      0.7982      0.7947    
       0.7902      0.7848      0.7788      0.7721      0.7650      0.7574      0.7495      0.7413      0.7327      0.7240    
       0.7150      0.7059      0.6964      0.6866      0.6766      0.6663      0.6567      0.6469      0.6283      0.6078    
       0.5917      0.5770      0.5627      0.5482      0.5324      0.5126      0.4946      0.4847      0.4749      0.4641    
       0.4543      0.4446      0.4348      0.4244      0.4128      0.3996      0.3861      0.3724      0.3587      0.3462    
       0.3345      0.3229      0.3112      0.2989      0.2864      0.2739      0.2613      0.2488      0.2364      0.2244    
       0.2132      0.2026      0.1925      0.1826      0.1728      0.1628      0.1525      0.1420      0.1314      0.1201    
       0.1097      0.1002      9.1364E-02  8.0939E-02  7.3293E-02  6.8753E-02  5.4027E-02  3.4205E-02  1.7432E-02   0.000    
  21    1.000      0.9932      0.9864      0.9796      0.9730      0.9664      0.9599      0.9536      0.9476      0.9418    
       0.9360      0.9303      0.9246      0.9194      0.9139      0.9082      0.9021      0.8957      0.8888      0.8815    
       0.8737      0.8654      0.8564      0.8465      0.8351      0.8208      0.8108      0.8061      0.8019      0.7973    
       0.7921      0.7861      0.7793      0.7720      0.7644      0.7564      0.7481      0.7395      0.7305      0.7212    
       0.7119      0.7024      0.6927      0.6826      0.6722      0.6614      0.6502      0.6374      0.6200      0.6047    
       0.5905      0.5768      0.5633      0.5498      0.5359      0.5211      0.5043      0.4919      0.4809      0.4704    
       0.4604      0.4504      0.4403      0.4298      0.4177      0.4011      0.3860      0.3709      0.3543      0.3420    
       0.3311      0.3203      0.3091      0.2976      0.2856      0.2734      0.2610      0.2486      0.2363      0.2243    
       0.2127      0.2019      0.1916      0.1815      0.1713      0.1610      0.1504      0.1395      0.1284      0.1173    
       0.1067      9.6742E-02  8.7335E-02  7.8074E-02  7.0185E-02  6.4604E-02  4.9816E-02  3.2880E-02  1.9207E-02   0.000    
  22    1.000      0.9931      0.9863      0.9795      0.9728      0.9662      0.9597      0.9533      0.9473      0.9419    
       0.9364      0.9305      0.9249      0.9205      0.9157      0.9103      0.9045      0.8982      0.8915      0.8843    
       0.8767      0.8688      0.8603      0.8512      0.8409      0.8273      0.8154      0.8110      0.8060      0.8007    
       0.7948      0.7881      0.7802      0.7722      0.7641      0.7558      0.7472      0.7381      0.7285      0.7184    
       0.7089      0.6993      0.6893      0.6788      0.6681      0.6571      0.6453      0.6324      0.6178      0.6036    
       0.5899      0.5766      0.5634      0.5502      0.5369      0.5233      0.5097      0.4975      0.4865      0.4762    
       0.4663      0.4565      0.4461      0.4366      0.4270      0.4088      0.3869      0.3647      0.3456      0.3366    
       0.3276      0.3179      0.3074      0.2967      0.2851      0.2730      0.2608      0.2484      0.2360      0.2237    
       0.2116      0.2007      0.1905      0.1803      0.1700      0.1595      0.1485      0.1372      0.1256      0.1140    
       0.1030      9.2789E-02  8.3161E-02  7.3837E-02  6.4771E-02  5.5166E-02  4.1454E-02  3.0563E-02  2.2899E-02   0.000    
  23    1.000      0.9930      0.9861      0.9793      0.9727      0.9660      0.9592      0.9524      0.9464      0.9421    
       0.9372      0.9306      0.9244      0.9213      0.9168      0.9116      0.9059      0.8997      0.8930      0.8859    
       0.8785      0.8707      0.8627      0.8543      0.8454      0.8356      0.8241      0.8166      0.8104      0.8045    
       0.7984      0.7912      0.7814      0.7726      0.7640      0.7555      0.7466      0.7372      0.7269      0.7152    
       0.7060      0.6965      0.6863      0.6752      0.6645      0.6534      0.6416      0.6289      0.6154      0.6020    
       0.5890      0.5761      0.5634      0.5508      0.5382      0.5256      0.5134      0.5021      0.4915      0.4815    
       0.4723      0.4631      0.4510      0.4437      0.4298      0.4095      0.3891      0.3682      0.3460      0.3310    
       0.3249      0.3162      0.3059      0.2968      0.2850      0.2729      0.2607      0.2483      0.2357      0.2228    
       0.2091      0.1990      0.1892      0.1793      0.1690      0.1583      0.1471      0.1352      0.1228      0.1100    
       9.8519E-02  8.8266E-02  7.8684E-02  6.9340E-02  5.9898E-02  4.9835E-02  3.8466E-02  2.7293E-02  1.5763E-02   0.000    
  24    1.000      0.9928      0.9857      0.9788      0.9725      0.9660      0.9588      0.9508      0.9452      0.9425    
       0.9384      0.9334      0.9274      0.9226      0.9176      0.9122      0.9064      0.9002      0.8935      0.8864    
       0.8788      0.8711      0.8630      0.8548      0.8464      0.8376      0.8286      0.8210      0.8145      0.8087    
       0.8029      0.7970      0.7863      0.7743      0.7646      0.7553      0.7458      0.7353      0.7218      0.7094    
       0.7033      0.6946      0.6840      0.6714      0.6612      0.6506      0.6389      0.6262      0.6127      0.6001    
       0.5878      0.5756      0.5634      0.5513      0.5393      0.5276      0.5164      0.5058      0.4958      0.4862    
       0.4781      0.4726      0.4591      0.4440      0.4282      0.4103      0.3918      0.3730      0.3544      0.3378    
       0.3269      0.3142      0.3030      0.2998      0.2888      0.2745      0.2616      0.2487      0.2350      0.2182    
       0.2031      0.1968      0.1882      0.1787      0.1684      0.1576      0.1462      0.1339      0.1204      0.1046    
       9.2866E-02  8.3074E-02  7.3968E-02  6.4942E-02  5.5647E-02  4.5810E-02  3.5282E-02  2.4380E-02  1.2855E-02   0.000    
  25    1.000      0.9927      0.9851      0.9779      0.9726      0.9667      0.9589      0.9517      0.9478      0.9438    
       0.9394      0.9345      0.9292      0.9240      0.9188      0.9132      0.9073      0.9011      0.8943      0.8872    
       0.8795      0.8716      0.8636      0.8556      0.8477      0.8397      0.8319      0.8243      0.8180      0.8127    
       0.8077      0.7989      0.7868      0.7755      0.7652      0.7552      0.7451      0.7344      0.7228      0.7114    
       0.7026      0.6924      0.6784      0.6650      0.6583      0.6487      0.6373      0.6242      0.6093      0.5978    
       0.5865      0.5750      0.5634      0.5517      0.5402      0.5291      0.5186      0.5090      0.4999      0.4892    
       0.4814      0.4768      0.4636      0.4453      0.4287      0.4118      0.3946      0.3775      0.3609      0.3457    
       0.3326      0.3199      0.3077      0.2996      0.2888      0.2762      0.2634      0.2503      0.2366      0.2221    
       0.2078      0.1979      0.1869      0.1786      0.1698      0.1569      0.1442      0.1300      0.1116      9.5047E-02
       8.5314E-02  7.7194E-02  6.9171E-02  6.0811E-02  5.1937E-02  4.2477E-02  3.2470E-02  2.2084E-02  1.1283E-02   0.000    
  26    1.000      0.9928      0.9841      0.9764      0.9729      0.9681      0.9623      0.9555      0.9503      0.9456    
       0.9409      0.9360      0.9308      0.9256      0.9202      0.9146      0.9087      0.9024      0.8957      0.8884    
       0.8803      0.8722      0.8642      0.8564      0.8489      0.8417      0.8348      0.8265      0.8203      0.8164    
       0.8085      0.7974      0.7864      0.7757      0.7654      0.7552      0.7450      0.7345      0.7237      0.7129    
       0.7027      0.6918      0.6797      0.6676      0.6582      0.6477      0.6352      0.6184      0.6025      0.5953    
       0.5855      0.5746      0.5633      0.5519      0.5407      0.5300      0.5201      0.5116      0.5056      0.4944    
       0.4828      0.4737      0.4604      0.4450      0.4294      0.4135      0.3975      0.3815      0.3661      0.3515    
       0.3380      0.3251      0.3130      0.3021      0.2905      0.2782      0.2655      0.2525      0.2392      0.2257    
       0.2126      0.2010      0.1897      0.1790      0.1680      0.1554      0.1416      0.1264      0.1088      8.9631E-02
       7.6150E-02  7.1217E-02  6.4712E-02  5.7194E-02  4.8814E-02  3.9690E-02  3.0034E-02  2.0204E-02  1.0193E-02   0.000    
  27    1.000      0.9935      0.9869      0.9797      0.9743      0.9690      0.9634      0.9577      0.9524      0.9475    
       0.9426      0.9376      0.9326      0.9274      0.9219      0.9162      0.9103      0.9042      0.8976      0.8906    
       0.8812      0.8727      0.8646      0.8570      0.8498      0.8435      0.8390      0.8302      0.8211      0.8144    
       0.8057      0.7959      0.7857      0.7755      0.7655      0.7554      0.7452      0.7349      0.7244      0.7139    
       0.7033      0.6925      0.6812      0.6699      0.6591      0.6478      0.6354      0.6213      0.6071      0.5971    
       0.5868      0.5760      0.5649      0.5537      0.5427      0.5321      0.5221      0.5131      0.5048      0.4943    
       0.4832      0.4720      0.4591      0.4450      0.4304      0.4153      0.4002      0.3851      0.3704      0.3562    
       0.3426      0.3296      0.3172      0.3052      0.2930      0.2806      0.2679      0.2550      0.2419      0.2288    
       0.2161      0.2038      0.1919      0.1801      0.1679      0.1548      0.1407      0.1251      0.1074      8.6473E-02
       7.1651E-02  6.6814E-02  6.1265E-02  5.4438E-02  4.6432E-02  3.7435E-02  2.7775E-02  1.8503E-02  9.2871E-03   0.000    
  28    1.000      0.9938      0.9875      0.9812      0.9756      0.9701      0.9647      0.9594      0.9543      0.9493    
       0.9443      0.9394      0.9344      0.9293      0.9240      0.9180      0.9122      0.9066      0.8998      0.8950    
       0.8850      0.8740      0.8652      0.8574      0.8501      0.8434      0.8372      0.8289      0.8205      0.8125    
       0.8039      0.7947      0.7851      0.7753      0.7655      0.7556      0.7456      0.7355      0.7252      0.7148    
       0.7043      0.6936      0.6826      0.6716      0.6605      0.6491      0.6371      0.6245      0.6121      0.6010    
       0.5901      0.5792      0.5681      0.5571      0.5462      0.5356      0.5253      0.5154      0.5055      0.4948    
       0.4836      0.4718      0.4591      0.4457      0.4316      0.4173      0.4028      0.3883      0.3741      0.3602    
       0.3467      0.3336      0.3208      0.3083      0.2958      0.2832      0.2705      0.2576      0.2446      0.2317    
       0.2189      0.2064      0.1940      0.1815      0.1687      0.1553      0.1411      0.1259      0.1094      9.1711E-02
       7.3929E-02  6.3122E-02  5.9097E-02  5.2861E-02  4.5039E-02  3.5841E-02  2.5131E-02  1.6746E-02  8.4523E-03   0.000    
  29    1.000      0.9940      0.9880      0.9822      0.9766      0.9712      0.9660      0.9609      0.9559      0.9510    
       0.9461      0.9412      0.9363      0.9316      0.9266      0.9196      0.9140      0.9102      0.9022      0.8935    
       0.8838      0.8743      0.8656      0.8576      0.8500      0.8427      0.8355      0.8276      0.8195      0.8113    
       0.8027      0.7938      0.7846      0.7751      0.7656      0.7559      0.7461      0.7362      0.7261      0.7159    
       0.7055      0.6949      0.6842      0.6733      0.6623      0.6510      0.6394      0.6276      0.6158      0.6045    
       0.5934      0.5824      0.5714      0.5604      0.5495      0.5387      0.5281      0.5176      0.5070      0.4960    
       0.4845      0.4725      0.4600      0.4468      0.4333      0.4194      0.4054      0.3914      0.3775      0.3638    
       0.3504      0.3372      0.3243      0.3115      0.2988      0.2860      0.2732      0.2603      0.2473      0.2344    
       0.2216      0.2088      0.1961      0.1832      0.1702      0.1566      0.1426      0.1279      0.1126      9.7038E-02
       8.2055E-02  6.9115E-02  6.1274E-02  5.3407E-02  4.4184E-02  3.1811E-02  2.0162E-02  1.4898E-02  7.7757E-03   0.000    
  30    1.000      0.9942      0.9885      0.9829      0.9774      0.9722      0.9671      0.9623      0.9575      0.9528    
       0.9479      0.9428      0.9381      0.9342      0.9313      0.9236      0.9149      0.9083      0.8999      0.8913    
       0.8825      0.8737      0.8653      0.8573      0.8496      0.8420      0.8345      0.8266      0.8186      0.8104    
       0.8020      0.7932      0.7843      0.7751      0.7658      0.7563      0.7467      0.7370      0.7271      0.7171    
       0.7069      0.6965      0.6859      0.6752      0.6643      0.6532      0.6419      0.6305      0.6191      0.6079    
       0.5967      0.5856      0.5746      0.5636      0.5526      0.5417      0.5308      0.5199      0.5089      0.4976    
       0.4859      0.4738      0.4613      0.4484      0.4352      0.4216      0.4080      0.3943      0.3807      0.3671    
       0.3538      0.3406      0.3276      0.3146      0.3017      0.2889      0.2759      0.2630      0.2500      0.2371    
       0.2241      0.2112      0.1983      0.1852      0.1720      0.1585      0.1446      0.1305      0.1161      0.1018    
       8.8130E-02  7.5865E-02  6.5594E-02  5.5830E-02  4.5637E-02  3.4528E-02  2.3429E-02  1.5444E-02  6.5739E-03   0.000    
  31    1.000      0.9944      0.9888      0.9834      0.9781      0.9730      0.9681      0.9635      0.9591      0.9547    
       0.9500      0.9441      0.9393      0.9356      0.9333      0.9251      0.9145      0.9061      0.8978      0.8895    
       0.8811      0.8728      0.8647      0.8568      0.8490      0.8413      0.8337      0.8259      0.8179      0.8098    
       0.8014      0.7929      0.7842      0.7752      0.7662      0.7569      0.7475      0.7380      0.7283      0.7184    
       0.7084      0.6982      0.6878      0.6773      0.6665      0.6556      0.6446      0.6334      0.6222      0.6111    
       0.6000      0.5889      0.5778      0.5667      0.5556      0.5446      0.5335      0.5223      0.5110      0.4995    
       0.4877      0.4756      0.4631      0.4504      0.4373      0.4240      0.4106      0.3972      0.3837      0.3703    
       0.3570      0.3438      0.3307      0.3177      0.3047      0.2917      0.2787      0.2657      0.2527      0.2397    
       0.2267      0.2137      0.2006      0.1874      0.1742      0.1607      0.1471      0.1333      0.1195      0.1059    
       9.2815E-02  8.0619E-02  6.9407E-02  5.8682E-02  4.8003E-02  3.7231E-02  2.6782E-02  1.7400E-02  8.3359E-03   0.000    
  32    1.000      0.9945      0.9890      0.9837      0.9785      0.9735      0.9689      0.9645      0.9605      0.9570    
       0.9534      0.9464      0.9392      0.9340      0.9291      0.9208      0.9120      0.9038      0.8957      0.8877    
       0.8796      0.8717      0.8638      0.8560      0.8483      0.8407      0.8330      0.8252      0.8174      0.8093    
       0.8011      0.7928      0.7842      0.7755      0.7667      0.7577      0.7485      0.7391      0.7297      0.7200    
       0.7101      0.7001      0.6899      0.6795      0.6689      0.6582      0.6473      0.6364      0.6253      0.6142    
       0.6032      0.5921      0.5810      0.5698      0.5587      0.5475      0.5363      0.5249      0.5134      0.5018    
       0.4899      0.4777      0.4653      0.4526      0.4397      0.4266      0.4133      0.4000      0.3867      0.3734    
       0.3602      0.3470      0.3338      0.3208      0.3077      0.2946      0.2816      0.2685      0.2554      0.2423    
       0.2292      0.2161      0.2030      0.1898      0.1765      0.1631      0.1496      0.1361      0.1227      0.1094    
       9.6632E-02  8.4386E-02  7.2732E-02  6.1487E-02  5.0463E-02  3.9609E-02  2.9072E-02  1.9044E-02  9.3670E-03   0.000    
  33    1.000      0.9945      0.9891      0.9838      0.9787      0.9738      0.9693      0.9651      0.9616      0.9592    
       0.9530      0.9444      0.9370      0.9306      0.9243      0.9169      0.9091      0.9013      0.8935      0.8858    
       0.8781      0.8705      0.8628      0.8552      0.8476      0.8401      0.8324      0.8247      0.8169      0.8090    
       0.8010      0.7928      0.7845      0.7760      0.7673      0.7585      0.7496      0.7405      0.7312      0.7217    
       0.7120      0.7022      0.6921      0.6819      0.6715      0.6609      0.6502      0.6394      0.6284      0.6174    
       0.6064      0.5953      0.5842      0.5730      0.5618      0.5505      0.5391      0.5276      0.5160      0.5043    
       0.4923      0.4801      0.4676      0.4550      0.4422      0.4292      0.4161      0.4029      0.3897      0.3765    
       0.3633      0.3501      0.3369      0.3238      0.3106      0.2975      0.2844      0.2713      0.2581      0.2450    
       0.2318      0.2186      0.2054      0.1922      0.1789      0.1656      0.1522      0.1389      0.1256      0.1126    
       9.9883E-02  8.7562E-02  7.5648E-02  6.4072E-02  5.2753E-02  4.1666E-02  3.0850E-02  2.0343E-02  1.0088E-02   0.000    
  34    1.000      0.9943      0.9887      0.9827      0.9787      0.9743      0.9686      0.9639      0.9597      0.9554    
       0.9484      0.9410      0.9339      0.9272      0.9205      0.9134      0.9061      0.8987      0.8914      0.8840    
       0.8766      0.8692      0.8618      0.8544      0.8469      0.8395      0.8319      0.8243      0.8167      0.8089    
       0.8010      0.7930      0.7849      0.7766      0.7682      0.7596      0.7508      0.7419      0.7329      0.7236    
       0.7141      0.7045      0.6946      0.6845      0.6742      0.6638      0.6532      0.6425      0.6316      0.6207    
       0.6097      0.5986      0.5874      0.5762      0.5649      0.5535      0.5421      0.5305      0.5188      0.5069    
       0.4949      0.4827      0.4702      0.4576      0.4449      0.4320      0.4190      0.4059      0.3927      0.3795    
       0.3663      0.3531      0.3399      0.3268      0.3136      0.3004      0.2872      0.2740      0.2608      0.2476    
       0.2344      0.2212      0.2079      0.1946      0.1813      0.1680      0.1548      0.1415      0.1284      0.1154    
       0.1027      9.0331E-02  7.8226E-02  6.6399E-02  5.4813E-02  4.3451E-02  3.2313E-02  2.1392E-02  1.0644E-02   0.000    
  35    1.000      0.9940      0.9881      0.9823      0.9774      0.9719      0.9664      0.9612      0.9561      0.9506    
       0.9442      0.9374      0.9305      0.9237      0.9170      0.9101      0.9032      0.8962      0.8892      0.8822    
       0.8751      0.8680      0.8608      0.8536      0.8463      0.8389      0.8315      0.8240      0.8165      0.8089    
       0.8011      0.7933      0.7854      0.7773      0.7691      0.7608      0.7523      0.7436      0.7348      0.7257    
       0.7164      0.7069      0.6972      0.6873      0.6771      0.6668      0.6563      0.6457      0.6349      0.6240    
       0.6130      0.6019      0.5907      0.5795      0.5681      0.5567      0.5452      0.5335      0.5217      0.5098    
       0.4977      0.4854      0.4730      0.4604      0.4477      0.4349      0.4219      0.4088      0.3957      0.3826    
       0.3694      0.3562      0.3430      0.3298      0.3165      0.3033      0.2901      0.2768      0.2636      0.2503    
       0.2370      0.2237      0.2104      0.1971      0.1838      0.1705      0.1573      0.1441      0.1310      0.1180    
       0.1053      9.2797E-02  8.0525E-02  6.8482E-02  5.6650E-02  4.5013E-02  3.3559E-02  2.2266E-02  1.1098E-02   0.000    
  36    1.000      0.9936      0.9873      0.9812      0.9754      0.9697      0.9640      0.9583      0.9527      0.9468    
       0.9405      0.9338      0.9270      0.9203      0.9136      0.9069      0.9003      0.8936      0.8870      0.8804    
       0.8737      0.8669      0.8599      0.8528      0.8457      0.8384      0.8311      0.8238      0.8164      0.8089    
       0.8014      0.7938      0.7860      0.7782      0.7702      0.7621      0.7539      0.7455      0.7369      0.7280    
       0.7189      0.7096      0.7001      0.6903      0.6802      0.6700      0.6596      0.6490      0.6383      0.6274    
       0.6164      0.6053      0.5941      0.5828      0.5715      0.5600      0.5484      0.5366      0.5248      0.5128    
       0.5007      0.4884      0.4759      0.4634      0.4507      0.4378      0.4249      0.4119      0.3988      0.3856    
       0.3725      0.3592      0.3460      0.3328      0.3195      0.3062      0.2929      0.2796      0.2663      0.2530    
       0.2396      0.2263      0.2129      0.1996      0.1863      0.1730      0.1597      0.1465      0.1334      0.1204    
       0.1076      9.5025E-02  8.2596E-02  7.0355E-02  5.8292E-02  4.6393E-02  3.4641E-02  2.3015E-02  1.1482E-02   0.000    
  37    1.000      0.9931      0.9863      0.9797      0.9734      0.9673      0.9614      0.9555      0.9496      0.9434    
       0.9370      0.9303      0.9235      0.9168      0.9102      0.9037      0.8974      0.8911      0.8849      0.8786    
       0.8723      0.8658      0.8591      0.8522      0.8451      0.8380      0.8308      0.8236      0.8163      0.8091    
       0.8017      0.7943      0.7868      0.7792      0.7715      0.7637      0.7557      0.7475      0.7392      0.7306    
       0.7217      0.7126      0.7031      0.6935      0.6835      0.6734      0.6630      0.6525      0.6418      0.6309    
       0.6200      0.6089      0.5976      0.5863      0.5749      0.5633      0.5517      0.5399      0.5280      0.5159    
       0.5038      0.4915      0.4790      0.4664      0.4537      0.4409      0.4280      0.4150      0.4019      0.3888    
       0.3756      0.3623      0.3491      0.3358      0.3225      0.3091      0.2958      0.2824      0.2690      0.2556    
       0.2423      0.2289      0.2155      0.2021      0.1887      0.1754      0.1621      0.1488      0.1357      0.1227    
       0.1098      9.7063E-02  8.4479E-02  7.2050E-02  5.9769E-02  4.7623E-02  3.5598E-02  2.3672E-02  1.1817E-02   0.000    
  38    1.000      0.9924      0.9850      0.9779      0.9712      0.9649      0.9588      0.9528      0.9467      0.9404    
       0.9338      0.9269      0.9200      0.9131      0.9066      0.9004      0.8944      0.8885      0.8827      0.8770    
       0.8711      0.8651      0.8586      0.8517      0.8446      0.8376      0.8305      0.8234      0.8163      0.8092    
       0.8021      0.7949      0.7876      0.7803      0.7729      0.7653      0.7576      0.7498      0.7417      0.7334    
       0.7247      0.7158      0.7065      0.6969      0.6871      0.6770      0.6666      0.6561      0.6454      0.6346    
       0.6236      0.6125      0.6013      0.5899      0.5784      0.5668      0.5551      0.5433      0.5313      0.5192    
       0.5070      0.4947      0.4822      0.4697      0.4569      0.4441      0.4312      0.4182      0.4051      0.3919    
       0.3787      0.3655      0.3521      0.3388      0.3254      0.3121      0.2986      0.2852      0.2718      0.2583    
       0.2449      0.2314      0.2180      0.2045      0.1911      0.1777      0.1644      0.1511      0.1379      0.1248    
       0.1118      9.8945E-02  8.6208E-02  7.3597E-02  6.1109E-02  4.8734E-02  3.6455E-02  2.4256E-02  1.2113E-02   0.000    
  39    1.000      0.9917      0.9835      0.9757      0.9686      0.9622      0.9561      0.9501      0.9440      0.9376    
       0.9308      0.9237      0.9163      0.9090      0.9028      0.8970      0.8913      0.8859      0.8805      0.8753    
       0.8702      0.8648      0.8584      0.8513      0.8442      0.8371      0.8302      0.8232      0.8164      0.8095    
       0.8026      0.7956      0.7886      0.7815      0.7743      0.7671      0.7597      0.7523      0.7445      0.7365    
       0.7281      0.7193      0.7102      0.7007      0.6908      0.6808      0.6705      0.6600      0.6493      0.6384    
       0.6274      0.6163      0.6050      0.5936      0.5820      0.5704      0.5586      0.5468      0.5348      0.5227    
       0.5104      0.4981      0.4856      0.4730      0.4602      0.4474      0.4345      0.4214      0.4083      0.3952    
       0.3819      0.3686      0.3553      0.3419      0.3285      0.3150      0.3015      0.2880      0.2745      0.2610    
       0.2475      0.2340      0.2205      0.2070      0.1935      0.1800      0.1666      0.1533      0.1400      0.1268    
       0.1137      0.1007      8.7809E-02  7.5023E-02  6.2338E-02  4.9746E-02  3.7233E-02  2.4784E-02  1.2380E-02   0.000    
  40    1.000      0.9907      0.9815      0.9729      0.9653      0.9591      0.9533      0.9476      0.9415      0.9351    
       0.9282      0.9208      0.9125      0.9040      0.8985      0.8933      0.8881      0.8830      0.8782      0.8737    
       0.8696      0.8655      0.8588      0.8511      0.8437      0.8366      0.8298      0.8231      0.8164      0.8098    
       0.8031      0.7964      0.7896      0.7828      0.7759      0.7690      0.7620      0.7549      0.7477      0.7401    
       0.7318      0.7232      0.7141      0.7047      0.6949      0.6848      0.6745      0.6639      0.6533      0.6424    
       0.6314      0.6202      0.6088      0.5974      0.5858      0.5741      0.5623      0.5504      0.5383      0.5262    
       0.5139      0.5015      0.4890      0.4764      0.4637      0.4508      0.4378      0.4248      0.4117      0.3984    
       0.3852      0.3718      0.3584      0.3450      0.3315      0.3180      0.3045      0.2909      0.2773      0.2637    
       0.2501      0.2365      0.2229      0.2094      0.1958      0.1823      0.1688      0.1554      0.1420      0.1287    
       0.1155      0.1023      8.9305E-02  7.6349E-02  6.3475E-02  5.0678E-02  3.7947E-02  2.5267E-02  1.2624E-02   0.000    
  41    1.000      0.9895      0.9791      0.9691      0.9606      0.9555      0.9506      0.9453      0.9394      0.9331    
       0.9263      0.9186      0.9089      0.8998      0.8962      0.8915      0.8865      0.8815      0.8768      0.8726    
       0.8692      0.8671      0.8602      0.8506      0.8428      0.8359      0.8293      0.8228      0.8164      0.8100    
       0.8036      0.7972      0.7907      0.7841      0.7775      0.7709      0.7644      0.7578      0.7512      0.7442    
       0.7360      0.7274      0.7186      0.7091      0.6992      0.6890      0.6787      0.6681      0.6574      0.6465    
       0.6355      0.6242      0.6128      0.6013      0.5897      0.5779      0.5661      0.5541      0.5420      0.5299    
       0.5176      0.5052      0.4926      0.4800      0.4672      0.4543      0.4413      0.4282      0.4151      0.4018    
       0.3885      0.3751      0.3616      0.3481      0.3346      0.3210      0.3074      0.2938      0.2801      0.2664    
       0.2528      0.2391      0.2254      0.2118      0.1981      0.1845      0.1709      0.1574      0.1439      0.1305    
       0.1172      0.1039      9.0715E-02  7.7591E-02  6.4536E-02  5.1545E-02  3.8608E-02  2.5714E-02  1.2849E-02   0.000    
  42    1.000      0.9883      0.9761      0.9639      0.9565      0.9537      0.9495      0.9444      0.9386      0.9324    
       0.9257      0.9186      0.9112      0.9032      0.8973      0.8917      0.8864      0.8812      0.8763      0.8718    
       0.8680      0.8651      0.8574      0.8484      0.8412      0.8347      0.8286      0.8225      0.8164      0.8104    
       0.8042      0.7980      0.7918      0.7854      0.7791      0.7729      0.7667      0.7608      0.7551      0.7494    
       0.7406      0.7320      0.7235      0.7140      0.7038      0.6935      0.6830      0.6725      0.6618      0.6508    
       0.6397      0.6284      0.6170      0.6054      0.5937      0.5818      0.5699      0.5580      0.5459      0.5336    
       0.5213      0.5089      0.4963      0.4836      0.4708      0.4579      0.4449      0.4318      0.4185      0.4052    
       0.3918      0.3784      0.3649      0.3513      0.3377      0.3240      0.3103      0.2966      0.2829      0.2691    
       0.2554      0.2416      0.2279      0.2141      0.2004      0.1867      0.1730      0.1594      0.1458      0.1323    
       0.1188      0.1054      9.2051E-02  7.8764E-02  6.5535E-02  5.2358E-02  3.9227E-02  2.6131E-02  1.3059E-02   0.000    
  43    1.000      0.9877      0.9731      0.9625      0.9590      0.9551      0.9504      0.9450      0.9391      0.9328    
       0.9261      0.9190      0.9118      0.9045      0.8979      0.8918      0.8861      0.8806      0.8754      0.8705    
       0.8656      0.8605      0.8529      0.8462      0.8400      0.8340      0.8282      0.8223      0.8165      0.8106    
       0.8046      0.7985      0.7923      0.7861      0.7799      0.7738      0.7678      0.7621      0.7571      0.7535    
       0.7451      0.7365      0.7296      0.7194      0.7086      0.6980      0.6875      0.6769      0.6663      0.6554    
       0.6442      0.6328      0.6212      0.6095      0.5977      0.5859      0.5739      0.5619      0.5498      0.5375    
       0.5252      0.5127      0.5001      0.4874      0.4746      0.4616      0.4485      0.4354      0.4221      0.4087    
       0.3953      0.3818      0.3682      0.3545      0.3408      0.3271      0.3133      0.2995      0.2857      0.2719    
       0.2580      0.2442      0.2303      0.2165      0.2026      0.1888      0.1751      0.1613      0.1476      0.1340    
       0.1204      0.1068      9.3326E-02  7.9879E-02  6.6481E-02  5.3127E-02  3.9810E-02  2.6523E-02  1.3256E-02   0.000    
  44    1.000      0.9895      0.9766      0.9658      0.9620      0.9572      0.9519      0.9462      0.9400      0.9335    
       0.9267      0.9197      0.9124      0.9051      0.8982      0.8916      0.8854      0.8797      0.8742      0.8690    
       0.8637      0.8582      0.8519      0.8458      0.8398      0.8339      0.8281      0.8223      0.8165      0.8106    
       0.8047      0.7986      0.7924      0.7862      0.7799      0.7736      0.7675      0.7615      0.7558      0.7502    
       0.7433      0.7378      0.7342      0.7255      0.7133      0.7025      0.6919      0.6815      0.6711      0.6602    
       0.6488      0.6373      0.6256      0.6138      0.6019      0.5900      0.5780      0.5659      0.5538      0.5416    
       0.5292      0.5167      0.5041      0.4913      0.4785      0.4654      0.4523      0.4391      0.4257      0.4123    
       0.3988      0.3852      0.3715      0.3578      0.3440      0.3302      0.3163      0.3024      0.2885      0.2746    
       0.2606      0.2467      0.2327      0.2188      0.2049      0.1910      0.1771      0.1632      0.1494      0.1356    
       0.1219      0.1082      9.4550E-02  8.0946E-02  6.7383E-02  5.3858E-02  4.0364E-02  2.6895E-02  1.3443E-02   0.000    
  45    1.000      0.9916      0.9827      0.9726      0.9659      0.9599      0.9539      0.9478      0.9413      0.9346    
       0.9277      0.9205      0.9130      0.9054      0.8980      0.8909      0.8844      0.8785      0.8728      0.8674    
       0.8621      0.8566      0.8509      0.8451      0.8394      0.8337      0.8281      0.8224      0.8167      0.8108    
       0.8049      0.7988      0.7926      0.7862      0.7798      0.7733      0.7669      0.7606      0.7544      0.7482    
       0.7418      0.7360      0.7309      0.7260      0.7166      0.7067      0.6962      0.6862      0.6765      0.6654    
       0.6537      0.6420      0.6301      0.6181      0.6061      0.5941      0.5821      0.5700      0.5579      0.5457    
       0.5333      0.5208      0.5082      0.4954      0.4825      0.4694      0.4562      0.4429      0.4295      0.4160    
       0.4024      0.3887      0.3749      0.3611      0.3473      0.3333      0.3194      0.3054      0.2914      0.2773    
       0.2633      0.2492      0.2352      0.2211      0.2071      0.1931      0.1791      0.1651      0.1511      0.1372    
       0.1234      0.1095      9.5730E-02  8.1972E-02  6.8249E-02  5.4558E-02  4.0893E-02  2.7250E-02  1.3621E-02   0.000    
  46    1.000      0.9921      0.9841      0.9761      0.9691      0.9626      0.9562      0.9496      0.9428      0.9359    
       0.9289      0.9216      0.9136      0.9055      0.8975      0.8897      0.8829      0.8769      0.8713      0.8659    
       0.8606      0.8552      0.8498      0.8444      0.8390      0.8335      0.8280      0.8225      0.8169      0.8111    
       0.8052      0.7991      0.7928      0.7863      0.7797      0.7730      0.7663      0.7596      0.7529      0.7463    
       0.7397      0.7334      0.7274      0.7212      0.7138      0.7092      0.6999      0.6906      0.6831      0.6712    
       0.6587      0.6467      0.6347      0.6225      0.6104      0.5983      0.5862      0.5742      0.5621      0.5499    
       0.5376      0.5251      0.5124      0.4996      0.4866      0.4735      0.4602      0.4468      0.4333      0.4197    
       0.4061      0.3923      0.3784      0.3645      0.3505      0.3365      0.3225      0.3084      0.2942      0.2801    
       0.2659      0.2518      0.2376      0.2234      0.2093      0.1951      0.1810      0.1669      0.1528      0.1388    
       0.1248      0.1108      9.6872E-02  8.2962E-02  6.9083E-02  5.5231E-02  4.1402E-02  2.7591E-02  1.3792E-02   0.000    
  47    1.000      0.9928      0.9856      0.9785      0.9717      0.9652      0.9585      0.9517      0.9444      0.9373    
       0.9305      0.9235      0.9142      0.9055      0.8968      0.8875      0.8807      0.8749      0.8695      0.8642    
       0.8590      0.8539      0.8488      0.8437      0.8385      0.8333      0.8281      0.8227      0.8172      0.8116    
       0.8057      0.7996      0.7933      0.7866      0.7797      0.7728      0.7658      0.7586      0.7514      0.7443    
       0.7373      0.7306      0.7242      0.7177      0.7110      0.7047      0.6972      0.6919      0.6887      0.6775    
       0.6632      0.6515      0.6394      0.6269      0.6145      0.6024      0.5904      0.5785      0.5665      0.5543    
       0.5420      0.5295      0.5168      0.5039      0.4909      0.4777      0.4643      0.4509      0.4373      0.4236    
       0.4098      0.3959      0.3820      0.3680      0.3539      0.3398      0.3256      0.3114      0.2971      0.2829    
       0.2686      0.2543      0.2400      0.2257      0.2114      0.1972      0.1829      0.1687      0.1545      0.1403    
       0.1262      0.1121      9.7981E-02  8.3922E-02  6.9890E-02  5.5881E-02  4.1892E-02  2.7919E-02  1.3956E-02   0.000    
  48    1.000      0.9934      0.9869      0.9805      0.9742      0.9678      0.9611      0.9544      0.9458      0.9385    
       0.9322      0.9278      0.9174      0.9052      0.8930      0.8826      0.8775      0.8727      0.8674      0.8624    
       0.8575      0.8526      0.8478      0.8430      0.8382      0.8332      0.8282      0.8230      0.8177      0.8122    
       0.8064      0.8005      0.7941      0.7870      0.7798      0.7726      0.7653      0.7577      0.7500      0.7420    
       0.7347      0.7276      0.7209      0.7144      0.7079      0.7015      0.6951      0.6897      0.6859      0.6760    
       0.6652      0.6568      0.6444      0.6311      0.6184      0.6063      0.5945      0.5828      0.5710      0.5589    
       0.5467      0.5341      0.5214      0.5084      0.4953      0.4820      0.4686      0.4550      0.4413      0.4275    
       0.4136      0.3997      0.3856      0.3715      0.3573      0.3430      0.3287      0.3144      0.3000      0.2856    
       0.2712      0.2568      0.2424      0.2280      0.2136      0.1992      0.1848      0.1705      0.1561      0.1418    
       0.1276      0.1133      9.9062E-02  8.4856E-02  7.0673E-02  5.6511E-02  4.2367E-02  2.8236E-02  1.4116E-02   0.000    
  49    1.000      0.9940      0.9881      0.9824      0.9768      0.9708      0.9636      0.9589      0.9497      0.9398    
       0.9323      0.9254      0.9155      0.9048      0.8936      0.8821      0.8742      0.8707      0.8652      0.8606    
       0.8559      0.8513      0.8468      0.8424      0.8379      0.8333      0.8284      0.8235      0.8184      0.8131    
       0.8074      0.8016      0.7956      0.7875      0.7799      0.7725      0.7649      0.7571      0.7487      0.7391    
       0.7317      0.7243      0.7175      0.7110      0.7046      0.6982      0.6919      0.6858      0.6795      0.6709    
       0.6648      0.6615      0.6502      0.6347      0.6218      0.6100      0.5985      0.5872      0.5756      0.5638    
       0.5515      0.5390      0.5261      0.5131      0.4998      0.4865      0.4729      0.4593      0.4455      0.4316    
       0.4176      0.4035      0.3893      0.3750      0.3607      0.3463      0.3319      0.3175      0.3030      0.2885    
       0.2739      0.2594      0.2448      0.2303      0.2158      0.2012      0.1867      0.1722      0.1578      0.1433    
       0.1289      0.1145      0.1001      8.5765E-02  7.1435E-02  5.7123E-02  4.2827E-02  2.8544E-02  1.4270E-02   0.000    
  50    1.000      0.9945      0.9891      0.9841      0.9796      0.9751      0.9669      0.9581      0.9490      0.9400    
       0.9317      0.9235      0.9144      0.9047      0.8947      0.8849      0.8761      0.8688      0.8622      0.8589    
       0.8540      0.8499      0.8458      0.8418      0.8377      0.8335      0.8288      0.8240      0.8194      0.8146    
       0.8083      0.8031      0.7992      0.7900      0.7798      0.7714      0.7633      0.7546      0.7437      0.7340    
       0.7287      0.7205      0.7138      0.7075      0.7012      0.6949      0.6886      0.6821      0.6755      0.6683    
       0.6621      0.6585      0.6492      0.6359      0.6240      0.6133      0.6025      0.5917      0.5807      0.5690    
       0.5568      0.5441      0.5311      0.5179      0.5046      0.4911      0.4775      0.4637      0.4498      0.4358    
       0.4216      0.4074      0.3931      0.3787      0.3642      0.3497      0.3351      0.3205      0.3059      0.2913    
       0.2766      0.2619      0.2473      0.2326      0.2179      0.2032      0.1886      0.1740      0.1594      0.1448    
       0.1302      0.1157      0.1011      8.6653E-02  7.2177E-02  5.7719E-02  4.3275E-02  2.8843E-02  1.4420E-02   0.000    
  51    1.000      0.9947      0.9898      0.9854      0.9824      0.9755      0.9659      0.9570      0.9482      0.9396    
       0.9311      0.9227      0.9139      0.9048      0.8957      0.8868      0.8785      0.8709      0.8636      0.8572    
       0.8514      0.8486      0.8446      0.8412      0.8378      0.8341      0.8292      0.8245      0.8204      0.8174    
       0.8100      0.8022      0.7958      0.7867      0.7777      0.7690      0.7605      0.7517      0.7423      0.7331    
       0.7239      0.7151      0.7097      0.7041      0.6979      0.6917      0.6853      0.6787      0.6719      0.6646    
       0.6567      0.6521      0.6460      0.6357      0.6249      0.6167      0.6065      0.5964      0.5864      0.5749    
       0.5624      0.5495      0.5362      0.5229      0.5094      0.4959      0.4821      0.4682      0.4542      0.4400    
       0.4257      0.4114      0.3969      0.3823      0.3677      0.3531      0.3384      0.3237      0.3089      0.2941    
       0.2793      0.2645      0.2497      0.2348      0.2200      0.2052      0.1904      0.1757      0.1609      0.1462    
       0.1315      0.1168      0.1022      8.7520E-02  7.2901E-02  5.8299E-02  4.3711E-02  2.9134E-02  1.4565E-02   0.000    
  52    1.000      0.9947      0.9895      0.9846      0.9798      0.9723      0.9641      0.9557      0.9473      0.9389    
       0.9305      0.9221      0.9136      0.9050      0.8965      0.8881      0.8801      0.8726      0.8655      0.8589    
       0.8527      0.8474      0.8427      0.8407      0.8382      0.8361      0.8303      0.8240      0.8189      0.8140    
       0.8065      0.7991      0.7917      0.7835      0.7750      0.7666      0.7581      0.7494      0.7405      0.7316    
       0.7225      0.7128      0.7056      0.7014      0.6945      0.6885      0.6821      0.6757      0.6688      0.6616    
       0.6541      0.6473      0.6399      0.6307      0.6239      0.6195      0.6104      0.6011      0.5935      0.5817    
       0.5686      0.5551      0.5415      0.5280      0.5145      0.5008      0.4870      0.4729      0.4587      0.4444    
       0.4300      0.4154      0.4008      0.3861      0.3713      0.3565      0.3417      0.3268      0.3119      0.2970    
       0.2820      0.2670      0.2521      0.2371      0.2222      0.2072      0.1923      0.1774      0.1625      0.1476    
       0.1328      0.1179      0.1031      8.8368E-02  7.3608E-02  5.8865E-02  4.4136E-02  2.9418E-02  1.4707E-02   0.000    
  53    1.000      0.9943      0.9887      0.9830      0.9770      0.9700      0.9624      0.9544      0.9463      0.9381    
       0.9300      0.9217      0.9135      0.9052      0.8970      0.8890      0.8813      0.8739      0.8669      0.8604    
       0.8542      0.8487      0.8438      0.8404      0.8371      0.8335      0.8276      0.8217      0.8159      0.8099    
       0.8031      0.7959      0.7884      0.7805      0.7724      0.7642      0.7559      0.7474      0.7388      0.7302    
       0.7215      0.7130      0.7053      0.6976      0.6903      0.6859      0.6790      0.6729      0.6662      0.6587    
       0.6506      0.6431      0.6358      0.6283      0.6215      0.6154      0.6080      0.6026      0.5991      0.5897    
       0.5753      0.5608      0.5467      0.5331      0.5196      0.5059      0.4920      0.4778      0.4634      0.4489    
       0.4343      0.4196      0.4048      0.3899      0.3750      0.3600      0.3450      0.3300      0.3149      0.2998    
       0.2847      0.2696      0.2545      0.2394      0.2243      0.2092      0.1941      0.1790      0.1640      0.1490    
       0.1340      0.1191      0.1041      8.9196E-02  7.4298E-02  5.9417E-02  4.4550E-02  2.9693E-02  1.4845E-02   0.000    
  54    1.000      0.9940      0.9880      0.9818      0.9753      0.9684      0.9609      0.9532      0.9454      0.9374    
       0.9294      0.9214      0.9133      0.9053      0.8974      0.8896      0.8821      0.8748      0.8679      0.8613    
       0.8552      0.8495      0.8443      0.8397      0.8353      0.8305      0.8250      0.8191      0.8131      0.8068    
       0.8000      0.7929      0.7855      0.7778      0.7699      0.7619      0.7537      0.7455      0.7372      0.7288    
       0.7205      0.7124      0.7045      0.6969      0.6896      0.6821      0.6749      0.6708      0.6645      0.6566    
       0.6465      0.6388      0.6317      0.6250      0.6185      0.6123      0.6061      0.6006      0.5960      0.5917    
       0.5818      0.5663      0.5515      0.5380      0.5249      0.5113      0.4972      0.4828      0.4682      0.4535    
       0.4387      0.4238      0.4088      0.3938      0.3787      0.3636      0.3484      0.3332      0.3180      0.3027    
       0.2874      0.2722      0.2569      0.2416      0.2264      0.2111      0.1959      0.1807      0.1655      0.1504    
       0.1352      0.1201      0.1051      9.0005E-02  7.4970E-02  5.9954E-02  4.4952E-02  2.9962E-02  1.4979E-02   0.000    
  55    1.000      0.9937      0.9873      0.9809      0.9741      0.9671      0.9598      0.9523      0.9446      0.9368    
       0.9289      0.9211      0.9132      0.9054      0.8976      0.8900      0.8826      0.8754      0.8685      0.8619    
       0.8557      0.8498      0.8442      0.8390      0.8338      0.8284      0.8227      0.8167      0.8105      0.8040    
       0.7972      0.7902      0.7829      0.7753      0.7676      0.7597      0.7517      0.7437      0.7355      0.7274    
       0.7193      0.7114      0.7036      0.6960      0.6885      0.6812      0.6744      0.6684      0.6610      0.6503    
       0.6402      0.6337      0.6275      0.6214      0.6154      0.6094      0.6034      0.5977      0.5925      0.5877    
       0.5832      0.5709      0.5549      0.5425      0.5307      0.5172      0.5028      0.4880      0.4731      0.4582    
       0.4432      0.4281      0.4129      0.3977      0.3825      0.3672      0.3518      0.3364      0.3210      0.3056    
       0.2902      0.2747      0.2593      0.2439      0.2284      0.2130      0.1977      0.1823      0.1670      0.1517    
       0.1364      0.1212      0.1060      9.0793E-02  7.5625E-02  6.0476E-02  4.5343E-02  3.0222E-02  1.5109E-02   0.000    
  56    1.000      0.9934      0.9868      0.9801      0.9733      0.9662      0.9589      0.9514      0.9439      0.9362    
       0.9285      0.9207      0.9130      0.9053      0.8977      0.8902      0.8829      0.8757      0.8689      0.8622    
       0.8558      0.8497      0.8438      0.8381      0.8324      0.8267      0.8207      0.8146      0.8082      0.8016    
       0.7948      0.7877      0.7804      0.7730      0.7654      0.7576      0.7498      0.7419      0.7339      0.7260    
       0.7180      0.7102      0.7025      0.6948      0.6873      0.6799      0.6726      0.6653      0.6571      0.6475    
       0.6368      0.6284      0.6230      0.6176      0.6121      0.6064      0.6004      0.5944      0.5887      0.5833    
       0.5789      0.5673      0.5549      0.5462      0.5382      0.5241      0.5087      0.4934      0.4781      0.4629    
       0.4477      0.4324      0.4171      0.4017      0.3863      0.3708      0.3552      0.3397      0.3241      0.3085    
       0.2929      0.2773      0.2617      0.2461      0.2305      0.2150      0.1994      0.1839      0.1685      0.1530    
       0.1376      0.1222      0.1069      9.1559E-02  7.6260E-02  6.0982E-02  4.5721E-02  3.0473E-02  1.5234E-02   0.000    
  57    1.000      0.9932      0.9864      0.9796      0.9726      0.9654      0.9582      0.9507      0.9432      0.9356    
       0.9280      0.9204      0.9127      0.9051      0.8976      0.8902      0.8829      0.8758      0.8689      0.8622    
       0.8557      0.8494      0.8432      0.8372      0.8312      0.8251      0.8189      0.8126      0.8061      0.7994    
       0.7925      0.7855      0.7782      0.7708      0.7633      0.7557      0.7479      0.7401      0.7323      0.7245    
       0.7167      0.7089      0.7012      0.6936      0.6860      0.6785      0.6709      0.6631      0.6548      0.6457    
       0.6360      0.6261      0.6186      0.6140      0.6092      0.6036      0.5972      0.5910      0.5846      0.5778    
       0.5705      0.5603      0.5529      0.5479      0.5450      0.5324      0.5146      0.4986      0.4831      0.4677    
       0.4523      0.4368      0.4213      0.4057      0.3901      0.3744      0.3587      0.3430      0.3272      0.3114    
       0.2956      0.2798      0.2640      0.2483      0.2325      0.2168      0.2011      0.1855      0.1699      0.1543    
       0.1388      0.1232      0.1078      9.2301E-02  7.6874E-02  6.1470E-02  4.6086E-02  3.0716E-02  1.5355E-02   0.000    
  58    1.000      0.9931      0.9861      0.9791      0.9720      0.9648      0.9575      0.9501      0.9427      0.9351    
[...]
       0.2470      0.2311      0.2154      0.2000      0.1851      0.1703      0.1551      0.1391      0.1230      0.1083    
       9.4086E-02  8.0691E-02  7.3332E-02  6.2627E-02  4.9505E-02  3.9183E-02  2.8980E-02  1.8672E-02  9.1617E-03   0.000    
  87    1.000      0.9944      0.9888      0.9834      0.9783      0.9735      0.9694      0.9665      0.9621      0.9574    
       0.9535      0.9486      0.9433      0.9378      0.9319      0.9257      0.9193      0.9133      0.9077      0.9026    
       0.8979      0.8932      0.8886      0.8839      0.8792      0.8743      0.8692      0.8640      0.8585      0.8527    
       0.8468      0.8406      0.8342      0.8276      0.8209      0.8140      0.8070      0.7996      0.7921      0.7841    
       0.7758      0.7672      0.7581      0.7487      0.7388      0.7287      0.7182      0.7074      0.6964      0.6850    
       0.6735      0.6616      0.6496      0.6372      0.6247      0.6119      0.5990      0.5858      0.5725      0.5590    
       0.5454      0.5317      0.5178      0.5038      0.4896      0.4753      0.4609      0.4463      0.4316      0.4168    
       0.4017      0.3865      0.3712      0.3557      0.3401      0.3244      0.3085      0.2926      0.2765      0.2605    
       0.2445      0.2286      0.2128      0.1973      0.1821      0.1669      0.1517      0.1364      0.1213      0.1069    
       9.3287E-02  8.0739E-02  7.0122E-02  5.6132E-02  4.3142E-02  3.6513E-02  2.7258E-02  1.6378E-02  8.0144E-03   0.000    
  88    1.000      0.9948      0.9896      0.9846      0.9798      0.9754      0.9716      0.9683      0.9651      0.9613    
       0.9574      0.9531      0.9484      0.9435      0.9384      0.9331      0.9276      0.9223      0.9172      0.9124    
       0.9077      0.9031      0.8985      0.8939      0.8892      0.8844      0.8795      0.8744      0.8691      0.8636    
       0.8578      0.8518      0.8456      0.8392      0.8326      0.8257      0.8186      0.8112      0.8034      0.7953    
       0.7867      0.7776      0.7681      0.7582      0.7478      0.7370      0.7259      0.7144      0.7026      0.6906    
       0.6784      0.6659      0.6532      0.6403      0.6272      0.6140      0.6006      0.5871      0.5734      0.5597    
       0.5458      0.5317      0.5176      0.5034      0.4890      0.4745      0.4599      0.4452      0.4303      0.4152    
       0.4001      0.3848      0.3693      0.3537      0.3380      0.3221      0.3062      0.2902      0.2741      0.2580    
       0.2419      0.2259      0.2101      0.1944      0.1789      0.1636      0.1484      0.1334      0.1188      0.1047    
       9.1413E-02  7.8901E-02  6.7141E-02  5.5004E-02  4.3598E-02  3.4284E-02  2.2391E-02  1.1566E-02  6.5177E-03   0.000    
  89    1.000      0.9955      0.9910      0.9867      0.9826      0.9787      0.9752      0.9720      0.9687      0.9653    
       0.9617      0.9579      0.9538      0.9496      0.9451      0.9405      0.9359      0.9312      0.9265      0.9220    
       0.9174      0.9129      0.9084      0.9039      0.8993      0.8946      0.8899      0.8850      0.8799      0.8746    
       0.8690      0.8633      0.8573      0.8510      0.8445      0.8377      0.8306      0.8231      0.8152      0.8068    
       0.7980      0.7886      0.7786      0.7681      0.7572      0.7457      0.7339      0.7217      0.7092      0.6964    
       0.6835      0.6703      0.6570      0.6435      0.6300      0.6163      0.6024      0.5885      0.5745      0.5604    
       0.5462      0.5320      0.5176      0.5031      0.4885      0.4738      0.4590      0.4441      0.4291      0.4139    
       0.3986      0.3831      0.3675      0.3518      0.3360      0.3200      0.3040      0.2878      0.2716      0.2554    
       0.2392      0.2231      0.2071      0.1912      0.1756      0.1601      0.1450      0.1301      0.1157      0.1019    
       8.8725E-02  7.6309E-02  6.4534E-02  5.3146E-02  4.2403E-02  3.2452E-02  2.2295E-02  1.2705E-02  5.1018E-03   0.000    
  90    1.000      0.9961      0.9923      0.9886      0.9851      0.9817      0.9786      0.9755      0.9725      0.9694    
       0.9662      0.9629      0.9594      0.9558      0.9520      0.9481      0.9441      0.9400      0.9358      0.9315    
       0.9271      0.9227      0.9183      0.9139      0.9095      0.9050      0.9005      0.8958      0.8909      0.8858    
       0.8805      0.8750      0.8692      0.8631      0.8568      0.8501      0.8430      0.8355      0.8274      0.8189    
       0.8098      0.8000      0.7896      0.7786      0.7670      0.7548      0.7422      0.7292      0.7160      0.7024    
       0.6887      0.6749      0.6609      0.6469      0.6328      0.6186      0.6044      0.5901      0.5757      0.5613    
       0.5468      0.5322      0.5176      0.5029      0.4881      0.4733      0.4583      0.4432      0.4280      0.4126    
       0.3972      0.3816      0.3659      0.3500      0.3341      0.3180      0.3018      0.2856      0.2692      0.2529    
       0.2365      0.2202      0.2040      0.1879      0.1720      0.1564      0.1412      0.1263      0.1120      9.8298E-02
       8.5318E-02  7.3077E-02  6.1542E-02  5.0643E-02  4.0414E-02  3.0827E-02  2.1634E-02  1.2966E-02  4.7897E-03   0.000    
  91    1.000      0.9967      0.9935      0.9904      0.9874      0.9845      0.9818      0.9791      0.9764      0.9737    
       0.9709      0.9681      0.9652      0.9621      0.9590      0.9558      0.9524      0.9488      0.9451      0.9411    
       0.9369      0.9325      0.9282      0.9239      0.9197      0.9155      0.9112      0.9067      0.9022      0.8973    
       0.8923      0.8869      0.8814      0.8755      0.8693      0.8628      0.8558      0.8483      0.8402      0.8316    
       0.8222      0.8121      0.8013      0.7896      0.7773      0.7644      0.7510      0.7371      0.7230      0.7086    
       0.6942      0.6796      0.6650      0.6503      0.6357      0.6210      0.6063      0.5916      0.5769      0.5622    
       0.5474      0.5326      0.5178      0.5028      0.4879      0.4728      0.4576      0.4424      0.4270      0.4115    
       0.3959      0.3802      0.3644      0.3484      0.3323      0.3161      0.2998      0.2833      0.2668      0.2503    
       0.2337      0.2172      0.2007      0.1844      0.1682      0.1524      0.1370      0.1220      0.1077      9.4026E-02
       8.1174E-02  6.9138E-02  5.7913E-02  4.7469E-02  3.7783E-02  2.8806E-02  2.0451E-02  1.2743E-02  5.7823E-03   0.000    
  92    1.000      0.9973      0.9946      0.9920      0.9896      0.9872      0.9850      0.9827      0.9804      0.9780    
       0.9756      0.9733      0.9710      0.9686      0.9661      0.9636      0.9608      0.9579      0.9547      0.9510    
       0.9468      0.9424      0.9381      0.9339      0.9299      0.9260      0.9220      0.9179      0.9136      0.9091    
       0.9042      0.8992      0.8938      0.8882      0.8823      0.8759      0.8690      0.8616      0.8536      0.8449    
       0.8354      0.8250      0.8137      0.8014      0.7883      0.7745      0.7601      0.7453      0.7302      0.7150    
       0.6997      0.6844      0.6691      0.6538      0.6386      0.6234      0.6083      0.5932      0.5782      0.5631    
       0.5481      0.5330      0.5180      0.5028      0.4877      0.4724      0.4571      0.4417      0.4262      0.4106    
       0.3948      0.3790      0.3630      0.3469      0.3306      0.3143      0.2978      0.2812      0.2645      0.2477    
       0.2309      0.2141      0.1973      0.1806      0.1642      0.1480      0.1323      0.1171      0.1026      8.8973E-02
       7.6214E-02  6.4389E-02  5.3504E-02  4.3538E-02  3.4443E-02  2.6158E-02  1.8619E-02  1.1776E-02  5.5961E-03   0.000    
  93    1.000      0.9977      0.9955      0.9935      0.9916      0.9899      0.9882      0.9864      0.9845      0.9822    
       0.9802      0.9786      0.9769      0.9752      0.9734      0.9715      0.9695      0.9673      0.9647      0.9614    
       0.9568      0.9521      0.9478      0.9438      0.9401      0.9365      0.9329      0.9292      0.9253      0.9211    
       0.9165      0.9116      0.9066      0.9013      0.8956      0.8895      0.8828      0.8756      0.8677      0.8591    
       0.8495      0.8388      0.8270      0.8140      0.8000      0.7851      0.7696      0.7537      0.7376      0.7214    
       0.7052      0.6891      0.6731      0.6572      0.6415      0.6258      0.6103      0.5948      0.5794      0.5641    
       0.5488      0.5335      0.5182      0.5029      0.4875      0.4721      0.4566      0.4411      0.4254      0.4097    
       0.3938      0.3778      0.3617      0.3455      0.3291      0.3126      0.2959      0.2791      0.2622      0.2452    
       0.2281      0.2109      0.1938      0.1767      0.1598      0.1431      0.1270      0.1115      9.6776E-02  8.3029E-02
       7.0321E-02  5.8698E-02  4.8177E-02  3.8735E-02  3.0293E-02  2.2766E-02  1.6089E-02  1.0145E-02  4.8253E-03   0.000    
  94    1.000      0.9982      0.9964      0.9947      0.9935      0.9925      0.9914      0.9902      0.9889      0.9862    
       0.9844      0.9839      0.9830      0.9819      0.9807      0.9795      0.9783      0.9770      0.9754      0.9730    
       0.9669      0.9616      0.9571      0.9534      0.9501      0.9470      0.9440      0.9408      0.9374      0.9334    
       0.9290      0.9243      0.9196      0.9147      0.9094      0.9036      0.8972      0.8902      0.8826      0.8741    
       0.8646      0.8538      0.8414      0.8276      0.8125      0.7964      0.7796      0.7624      0.7451      0.7278    
       0.7107      0.6937      0.6770      0.6605      0.6442      0.6281      0.6121      0.5963      0.5806      0.5650    
       0.5495      0.5339      0.5185      0.5029      0.4874      0.4719      0.4562      0.4406      0.4248      0.4089    
       0.3929      0.3768      0.3606      0.3442      0.3277      0.3110      0.2942      0.2772      0.2601      0.2428    
       0.2253      0.2078      0.1902      0.1726      0.1551      0.1378      0.1211      0.1050      8.9975E-02  7.6044E-02
       6.3343E-02  5.1907E-02  4.1771E-02  3.2932E-02  2.5228E-02  1.8525E-02  1.2825E-02  7.8895E-03  3.5587E-03   0.000    
  95    1.000      0.9986      0.9971      0.9955      0.9944      0.9938      0.9930      0.9923      0.9917      0.9895    
       0.9874      0.9867      0.9861      0.9853      0.9845      0.9836      0.9828      0.9820      0.9813      0.9808    
       0.9763      0.9700      0.9658      0.9626      0.9599      0.9575      0.9551      0.9527      0.9499      0.9464    
       0.9417      0.9371      0.9328      0.9284      0.9237      0.9184      0.9122      0.9055      0.8983      0.8903    
       0.8811      0.8702      0.8573      0.8425      0.8261      0.8084      0.7899      0.7712      0.7525      0.7341    
       0.7159      0.6981      0.6807      0.6636      0.6467      0.6302      0.6139      0.5977      0.5817      0.5659    
       0.5501      0.5344      0.5187      0.5030      0.4874      0.4717      0.4559      0.4401      0.4242      0.4083    
       0.3922      0.3760      0.3596      0.3431      0.3265      0.3097      0.2927      0.2755      0.2581      0.2405    
       0.2227      0.2047      0.1866      0.1683      0.1501      0.1321      0.1145      9.7659E-02  8.2031E-02  6.7831E-02
       5.5101E-02  4.3817E-02  3.4070E-02  2.5994E-02  1.9160E-02  1.3281E-02  8.7989E-03  5.0314E-03  1.5204E-03   0.000    
  96    1.000      0.9988      0.9975      0.9963      0.9950      0.9940      0.9931      0.9922      0.9912      0.9899    
       0.9886      0.9873      0.9863      0.9854      0.9846      0.9837      0.9828      0.9820      0.9812      0.9805    
       0.9798      0.9764      0.9733      0.9713      0.9695      0.9679      0.9664      0.9649      0.9631      0.9605    
       0.9542      0.9496      0.9459      0.9425      0.9387      0.9340      0.9277      0.9213      0.9148      0.9077    
       0.8992      0.8887      0.8752      0.8592      0.8409      0.8210      0.8005      0.7800      0.7598      0.7400    
       0.7208      0.7022      0.6840      0.6663      0.6490      0.6321      0.6154      0.5990      0.5827      0.5666    
       0.5507      0.5348      0.5190      0.5032      0.4874      0.4715      0.4557      0.4398      0.4238      0.4077    
       0.3915      0.3752      0.3588      0.3422      0.3254      0.3085      0.2913      0.2739      0.2563      0.2384    
       0.2202      0.2018      0.1831      0.1641      0.1449      0.1258      0.1070      8.9101E-02  7.2658E-02  5.8150E-02
       4.5411E-02  3.4190E-02  2.4698E-02  1.7813E-02  1.2138E-02  6.6380E-03  4.0571E-03  1.9206E-03  2.4700E-04   0.000    
  97    1.000      0.9988      0.9976      0.9964      0.9952      0.9941      0.9931      0.9921      0.9910      0.9899    
       0.9887      0.9876      0.9865      0.9856      0.9846      0.9837      0.9828      0.9820      0.9811      0.9802    
       0.9792      0.9779      0.9766      0.9755      0.9743      0.9732      0.9721      0.9711      0.9702      0.9695    
       0.9650      0.9613      0.9589      0.9569      0.9546      0.9513      0.9433      0.9372      0.9319      0.9263    
       0.9195      0.9100      0.8955      0.8780      0.8572      0.8344      0.8112      0.7885      0.7665      0.7454    
       0.7252      0.7057      0.6869      0.6687      0.6510      0.6337      0.6167      0.6000      0.5836      0.5673    
       0.5512      0.5351      0.5192      0.5033      0.4874      0.4714      0.4555      0.4395      0.4234      0.4073    
       0.3910      0.3746      0.3581      0.3414      0.3245      0.3074      0.2901      0.2726      0.2547      0.2366    
       0.2181      0.1991      0.1798      0.1600      0.1398      0.1192      9.8753E-02  7.9055E-02  6.1350E-02  4.6699E-02
       3.4204E-02  2.2835E-02  1.2719E-02  8.4236E-03  4.9412E-03  1.8091E-03  1.4379E-03  9.5336E-04  4.1613E-04   0.000    
  98    1.000      0.9988      0.9976      0.9964      0.9953      0.9942      0.9931      0.9921      0.9910      0.9899    
       0.9888      0.9877      0.9866      0.9857      0.9847      0.9838      0.9828      0.9819      0.9810      0.9800    
       0.9790      0.9778      0.9767      0.9755      0.9744      0.9732      0.9722      0.9711      0.9701      0.9691    
       0.9678      0.9665      0.9653      0.9642      0.9632      0.9624      0.9569      0.9523      0.9492      0.9463    
       0.9426      0.9362      0.9190      0.9003      0.8754      0.8482      0.8215      0.7961      0.7723      0.7499    
       0.7288      0.7086      0.6892      0.6706      0.6525      0.6349      0.6177      0.6009      0.5842      0.5678    
       0.5515      0.5354      0.5193      0.5033      0.4874      0.4714      0.4554      0.4393      0.4232      0.4070    
       0.3906      0.3742      0.3576      0.3408      0.3239      0.3067      0.2892      0.2715      0.2535      0.2351    
       0.2163      0.1969      0.1770      0.1564      0.1349      0.1126      8.9687E-02  6.7015E-02  4.6990E-02  3.3090E-02
       2.1872E-02  1.0225E-02  3.7297E-03  3.2714E-03  2.6808E-03  2.0228E-03  1.4991E-03  9.8647E-04  4.7547E-04   0.000    
  99    1.000      0.9988      0.9976      0.9965      0.9953      0.9942      0.9932      0.9921      0.9910      0.9899    
       0.9888      0.9877      0.9867      0.9857      0.9847      0.9838      0.9828      0.9819      0.9809      0.9799    
       0.9789      0.9778      0.9766      0.9755      0.9744      0.9733      0.9722      0.9711      0.9700      0.9689    
       0.9677      0.9665      0.9654      0.9642      0.9631      0.9620      0.9606      0.9592      0.9579      0.9567    
       0.9557      0.9548      0.9439      0.9288      0.8959      0.8615      0.8303      0.8022      0.7768      0.7533    
       0.7313      0.7106      0.6909      0.6719      0.6536      0.6358      0.6184      0.6014      0.5847      0.5682    
       0.5518      0.5356      0.5195      0.5034      0.4874      0.4713      0.4553      0.4392      0.4230      0.4067    
       0.3904      0.3739      0.3572      0.3404      0.3234      0.3061      0.2886      0.2708      0.2527      0.2341    
       0.2150      0.1953      0.1749      0.1535      0.1309      0.1066      8.0363E-02  5.2330E-02  2.6506E-02  1.6798E-02
       9.9712E-03  4.4700E-03  3.8813E-03  3.3021E-03  2.7036E-03  2.1019E-03  1.5475E-03  1.0172E-03  5.0083E-04   0.000    
 100    1.000      0.9988      0.9977      0.9965      0.9954      0.9943      0.9932      0.9921      0.9910      0.9899    
       0.9888      0.9878      0.9867      0.9857      0.9848      0.9838      0.9828      0.9819      0.9809      0.9799    
       0.9789      0.9778      0.9766      0.9755      0.9744      0.9733      0.9722      0.9711      0.9700      0.9689    
       0.9677      0.9665      0.9654      0.9642      0.9631      0.9619      0.9606      0.9592      0.9580      0.9568    
       0.9557      0.9546      0.9533      0.9521      0.9178      0.8718      0.8360      0.8058      0.7792      0.7551    
       0.7327      0.7117      0.6917      0.6726      0.6542      0.6363      0.6188      0.6017      0.5849      0.5683    
       0.5519      0.5357      0.5195      0.5034      0.4874      0.4713      0.4552      0.4391      0.4229      0.4066    
       0.3902      0.3737      0.3571      0.3402      0.3232      0.3059      0.2883      0.2705      0.2522      0.2336    
       0.2144      0.1945      0.1738      0.1519      0.1285      0.1026      7.2812E-02  3.5433E-02  8.0239E-03  7.1151E-03
       6.0147E-03  4.8359E-03  4.0230E-03  3.3519E-03  2.7301E-03  2.1344E-03  1.5713E-03  1.0334E-03  5.1145E-04   0.000    

 HEAD WILL BE SAVED ON UNIT   51 AT END OF TIME STEP    1, STRESS PERIOD    1
1
  VOLUMETRIC BUDGET FOR ENTIRE MODEL AT END OF TIME STEP    1, STRESS PERIOD   1
  ------------------------------------------------------------------------------

     CUMULATIVE VOLUMES      L**3       RATES FOR THIS TIME STEP      L**3/T
     ------------------                 ------------------------

           IN:                                      IN:
           ---                                      ---
             STORAGE =           0.0000               STORAGE =           0.0000
       CONSTANT HEAD =       9.5331E-02         CONSTANT HEAD =       9.5331E-02
               WELLS =           0.0000                 WELLS =           0.0000

            TOTAL IN =       9.5331E-02              TOTAL IN =       9.5331E-02

          OUT:                                     OUT:
          ----                                     ----
             STORAGE =           0.0000               STORAGE =           0.0000
       CONSTANT HEAD =       9.2339E-02         CONSTANT HEAD =       9.2339E-02
               WELLS =       3.0000E-03                 WELLS =       3.0000E-03

           TOTAL OUT =       9.5339E-02             TOTAL OUT =       9.5339E-02

            IN - OUT =      -8.5607E-06              IN - OUT =      -8.5607E-06

 PERCENT DISCREPANCY =          -0.01     PERCENT DISCREPANCY =          -0.01






         TIME SUMMARY AT END OF TIME STEP    1 IN STRESS PERIOD    1
                    SECONDS     MINUTES      HOURS       DAYS        YEARS
                    -----------------------------------------------------------
   TIME STEP LENGTH  86400.      1440.0      24.000      1.0000     2.73785E-03
 STRESS PERIOD TIME  86400.      1440.0      24.000      1.0000     2.73785E-03
         TOTAL TIME  86400.      1440.0      24.000      1.0000     2.73785E-03
1

 Run end date and time (yyyy/mm/dd hh:mm:ss): 2018/11/17 20:38:27
 Elapsed run time:  0.071 Seconds

